# generated using pymatgen
data_AlSnSe3
_symmetry_space_group_name_H-M   'P 1'
_cell_length_a   6.82725913
_cell_length_b   9.98832758
_cell_length_c   7.02132937
_cell_angle_alpha   90.00000120
_cell_angle_beta   90.00000053
_cell_angle_gamma   89.99999984
_symmetry_Int_Tables_number   1
_chemical_formula_structural   AlSnSe3
_chemical_formula_sum   'Al4 Sn4 Se12'
_cell_volume   478.80481652
_cell_formula_units_Z   4
loop_
 _symmetry_equiv_pos_site_id
 _symmetry_equiv_pos_as_xyz
  1  'x, y, z'
loop_
 _atom_site_type_symbol
 _atom_site_label
 _atom_site_symmetry_multiplicity
 _atom_site_fract_x
 _atom_site_fract_y
 _atom_site_fract_z
 _atom_site_occupancy
  Al  Al0  1  -0.00368192  0.47932366  0.51436163  1
  Al  Al1  1  -0.05789989  -0.02250539  0.45212789  1
  Al  Al2  1  0.50940785  -0.05139028  0.07442170  1
  Al  Al3  1  0.50940139  0.50716361  -0.06484932  1
  Sn  Sn4  1  0.99332600  0.75472158  0.97471770  1
  Sn  Sn5  1  0.42491316  0.80127171  0.51913278  1
  Sn  Sn6  1  0.56461138  0.26124674  0.50364602  1
  Sn  Sn7  1  0.07983178  0.29308145  0.01124014  1
  Se  Se8  1  0.80489878  0.06423892  0.16114492  1
  Se  Se9  1  0.77760453  0.43864848  0.16083917  1
  Se  Se10  1  0.26626721  0.41691486  0.30193858  1
  Se  Se11  1  0.71418792  0.91942401  0.72151407  1
  Se  Se12  1  0.18091472  0.55853138  0.77743077  1
  Se  Se13  1  0.69313583  0.55892779  0.64296533  1
  Se  Se14  1  0.29674655  0.02421776  0.34489757  1
  Se  Se15  1  0.25895652  0.94437253  0.83429720  1
  Se  Se16  1  0.99853413  0.74598561  0.38964546  1
  Se  Se17  1  0.53989756  0.71574172  0.13753298  1
  Se  Se18  1  0.43960584  0.24844826  0.89974567  1
  Se  Se19  1  -0.05035863  0.22857459  0.62309352  1
