# generated using pymatgen
data_AlSnSe3
_symmetry_space_group_name_H-M   'P 1'
_cell_length_a   6.82725899
_cell_length_b   9.98832813
_cell_length_c   7.02132953
_cell_angle_alpha   90.00000007
_cell_angle_beta   90.00000022
_cell_angle_gamma   89.99999944
_symmetry_Int_Tables_number   1
_chemical_formula_structural   AlSnSe3
_chemical_formula_sum   'Al4 Sn4 Se12'
_cell_volume   478.80484339
_cell_formula_units_Z   4
loop_
 _symmetry_equiv_pos_site_id
 _symmetry_equiv_pos_as_xyz
  1  'x, y, z'
loop_
 _atom_site_type_symbol
 _atom_site_label
 _atom_site_symmetry_multiplicity
 _atom_site_fract_x
 _atom_site_fract_y
 _atom_site_fract_z
 _atom_site_occupancy
  Al  Al0  1  -0.00000007  0.50000030  0.49999976  1
  Al  Al1  1  -0.00000016  0.00000022  0.50000014  1
  Al  Al2  1  0.49999997  0.00000047  -0.00000030  1
  Al  Al3  1  0.49999998  0.50000006  -0.00000019  1
  Sn  Sn4  1  0.95687431  0.74999997  0.99088499  1
  Sn  Sn5  1  0.45687430  0.74999998  0.50911437  1
  Sn  Sn6  1  0.54312632  0.25000002  0.49088461  1
  Sn  Sn7  1  0.04312559  0.25000003  0.00911417  1
  Se  Se8  1  0.81755914  0.06051695  0.18216279  1
  Se  Se9  1  0.81755900  0.43948268  0.18216287  1
  Se  Se10  1  0.31755899  0.43948313  0.31783739  1
  Se  Se11  1  0.68244090  0.93948256  0.68216283  1
  Se  Se12  1  0.18244079  0.56051681  0.81783744  1
  Se  Se13  1  0.68244076  0.56051720  0.68216272  1
  Se  Se14  1  0.31755901  0.06051651  0.31783737  1
  Se  Se15  1  0.18244115  0.93948285  0.81783734  1
  Se  Se16  1  1.03898148  0.75000005  0.38651401  1
  Se  Se17  1  0.53898035  0.75000010  0.11348690  1
  Se  Se18  1  0.46101823  0.25000003  0.88651401  1
  Se  Se19  1  -0.03898005  0.25000009  0.61348678  1
