# generated using pymatgen
data_BaCeS3
_symmetry_space_group_name_H-M   'P 1'
_cell_length_a   7.78439535
_cell_length_b   10.20118940
_cell_length_c   7.30337999
_cell_angle_alpha   89.99999763
_cell_angle_beta   90.00000604
_cell_angle_gamma   89.99999780
_symmetry_Int_Tables_number   1
_chemical_formula_structural   BaCeS3
_chemical_formula_sum   'Ba4 Ce4 S12'
_cell_volume   579.96207180
_cell_formula_units_Z   4
loop_
 _symmetry_equiv_pos_site_id
 _symmetry_equiv_pos_as_xyz
  1  'x, y, z'
loop_
 _atom_site_type_symbol
 _atom_site_label
 _atom_site_symmetry_multiplicity
 _atom_site_fract_x
 _atom_site_fract_y
 _atom_site_fract_z
 _atom_site_occupancy
  Ba  Ba0  1  0.92782060  0.75000013  0.47714182  1
  Ba  Ba1  1  0.42782090  0.75000021  0.02285833  1
  Ba  Ba2  1  0.57217880  0.25000013  0.97714101  1
  Ba  Ba3  1  0.07217847  0.24999996  0.52285903  1
  Ce  Ce4  1  0.00000282  0.49999863  0.00000034  1
  Ce  Ce5  1  0.00000182  0.00000054  -0.00000189  1
  Ce  Ce6  1  0.50000070  -0.00000089  0.49999708  1
  Ce  Ce7  1  0.50000228  0.49999954  0.49999750  1
  S  S8  1  0.79749399  0.05149972  0.69616887  1
  S  S9  1  0.79749454  0.44850114  0.69616915  1
  S  S10  1  0.29749587  0.44850181  0.80383133  1
  S  S11  1  0.70250531  0.94850062  0.19616772  1
  S  S12  1  0.20250353  0.55149945  0.30383440  1
  S  S13  1  0.70250489  0.55149993  0.19616620  1
  S  S14  1  0.29749664  0.05149869  0.80383266  1
  S  S15  1  0.20250277  0.94850135  0.30383404  1
  S  S16  1  0.95514045  0.24999960  0.11089670  1
  S  S17  1  0.45514072  0.24999979  0.38910437  1
  S  S18  1  0.54485770  0.74999990  0.61089522  1
  S  S19  1  0.04485722  0.74999976  0.88910612  1
