# generated using pymatgen
data_BaHfS3
_symmetry_space_group_name_H-M   'P 1'
_cell_length_a   7.07519022
_cell_length_b   9.91047590
_cell_length_c   7.08298318
_cell_angle_alpha   90.00000014
_cell_angle_beta   90.00000026
_cell_angle_gamma   90.00000039
_symmetry_Int_Tables_number   1
_chemical_formula_structural   BaHfS3
_chemical_formula_sum   'Ba4 Hf4 S12'
_cell_volume   496.64817128
_cell_formula_units_Z   4
loop_
 _symmetry_equiv_pos_site_id
 _symmetry_equiv_pos_as_xyz
  1  'x, y, z'
loop_
 _atom_site_type_symbol
 _atom_site_label
 _atom_site_symmetry_multiplicity
 _atom_site_fract_x
 _atom_site_fract_y
 _atom_site_fract_z
 _atom_site_occupancy
  Ba  Ba0  1  0.95868665  0.75000000  0.00795502  1
  Ba  Ba1  1  0.45868666  0.75000000  0.49204498  1
  Ba  Ba2  1  0.54131334  0.25000000  0.50795506  1
  Ba  Ba3  1  0.04131338  0.24999999  0.99204496  1
  Hf  Hf4  1  0.00000008  0.50000000  0.49999987  1
  Hf  Hf5  1  0.00000011  0.00000001  0.49999992  1
  Hf  Hf6  1  0.50000006  -0.00000000  0.00000011  1
  Hf  Hf7  1  0.50000010  0.50000002  0.00000010  1
  S  S8  1  0.78701501  0.03178874  0.78682391  1
  S  S9  1  0.78701500  0.46821123  0.78682395  1
  S  S10  1  0.28701503  0.46821125  0.71317604  1
  S  S11  1  0.71298492  0.96821123  0.28682398  1
  S  S12  1  0.21298491  0.53178878  0.21317605  1
  S  S13  1  0.71298493  0.53178877  0.28682399  1
  S  S14  1  0.28701501  0.03178876  0.71317605  1
  S  S15  1  0.21298493  0.96821119  0.21317601  1
  S  S16  1  0.99255588  0.25000001  0.43315022  1
  S  S17  1  0.49255588  0.25000000  0.06684975  1
  S  S18  1  0.50744404  0.75000003  0.93315022  1
  S  S19  1  0.00744407  0.75000001  0.56684980  1
