# generated using pymatgen
data_BaPrS3
_symmetry_space_group_name_H-M   'P 1'
_cell_length_a   7.92951386
_cell_length_b   10.31033791
_cell_length_c   7.46268266
_cell_angle_alpha   89.99999801
_cell_angle_beta   90.00003146
_cell_angle_gamma   89.99999358
_symmetry_Int_Tables_number   1
_chemical_formula_structural   BaPrS3
_chemical_formula_sum   'Ba4 Pr4 S12'
_cell_volume   610.11884004
_cell_formula_units_Z   4
loop_
 _symmetry_equiv_pos_site_id
 _symmetry_equiv_pos_as_xyz
  1  'x, y, z'
loop_
 _atom_site_type_symbol
 _atom_site_label
 _atom_site_symmetry_multiplicity
 _atom_site_fract_x
 _atom_site_fract_y
 _atom_site_fract_z
 _atom_site_occupancy
  Ba  Ba0  1  0.93178926  0.74214349  0.44831679  1
  Ba  Ba1  1  0.42377032  0.75791979  0.05864208  1
  Ba  Ba2  1  0.55018597  0.24995500  0.97502339  1
  Ba  Ba3  1  0.05263817  0.23343025  0.52195163  1
  Pr  Pr4  1  0.00083842  0.50575868  0.00538001  1
  Pr  Pr5  1  0.00411492  -0.01029346  -0.00040661  1
  Pr  Pr6  1  0.50457286  0.00035816  0.49555367  1
  Pr  Pr7  1  0.51568855  0.51089832  0.49503949  1
  S  S8  1  0.79873272  0.05301871  0.68000181  1
  S  S9  1  0.81748030  0.44340433  0.67691099  1
  S  S10  1  0.30674701  0.46061110  0.85141553  1
  S  S11  1  0.71082490  0.94309577  0.17721985  1
  S  S12  1  0.21034877  0.57331512  0.31466036  1
  S  S13  1  0.71272720  0.57107620  0.19903579  1
  S  S14  1  0.29639677  0.07296394  0.81267079  1
  S  S15  1  0.19084244  0.93924782  0.29635690  1
  S  S16  1  0.92465334  0.25079208  0.11203681  1
  S  S17  1  0.43488910  0.24866440  0.39136488  1
  S  S18  1  0.57549873  0.74485289  0.64898121  1
  S  S19  1  0.08830673  0.74030904  0.84198683  1
