# generated using pymatgen
data_BaPrS3
_symmetry_space_group_name_H-M   'P 1'
_cell_length_a   7.92951449
_cell_length_b   10.31034050
_cell_length_c   7.46268148
_cell_angle_alpha   90.00000445
_cell_angle_beta   89.99997413
_cell_angle_gamma   90.00001129
_symmetry_Int_Tables_number   1
_chemical_formula_structural   BaPrS3
_chemical_formula_sum   'Ba4 Pr4 S12'
_cell_volume   610.11894529
_cell_formula_units_Z   4
loop_
 _symmetry_equiv_pos_site_id
 _symmetry_equiv_pos_as_xyz
  1  'x, y, z'
loop_
 _atom_site_type_symbol
 _atom_site_label
 _atom_site_symmetry_multiplicity
 _atom_site_fract_x
 _atom_site_fract_y
 _atom_site_fract_z
 _atom_site_occupancy
  Ba  Ba0  1  0.91759401  0.74999963  0.47128118  1
  Ba  Ba1  1  0.41759396  0.75000014  0.02871880  1
  Ba  Ba2  1  0.58240674  0.24999960  0.97128046  1
  Ba  Ba3  1  0.08240688  0.24999960  0.52871925  1
  Pr  Pr4  1  0.00000133  0.49999951  -0.00000222  1
  Pr  Pr5  1  -0.00000044  -0.00000068  -0.00000118  1
  Pr  Pr6  1  0.49999724  0.00000004  0.50000182  1
  Pr  Pr7  1  0.49999821  0.50000055  0.49999874  1
  S  S8  1  0.80356251  0.05910531  0.68995907  1
  S  S9  1  0.80356362  0.44089418  0.68995922  1
  S  S10  1  0.30356088  0.44089498  0.81004193  1
  S  S11  1  0.69643866  0.94089525  0.18995770  1
  S  S12  1  0.19643854  0.55910523  0.31004270  1
  S  S13  1  0.69643738  0.55910528  0.18995843  1
  S  S14  1  0.30356156  0.05910544  0.81004237  1
  S  S15  1  0.19643879  0.94089507  0.31004233  1
  S  S16  1  0.94503953  0.25000033  0.13601280  1
  S  S17  1  0.44503940  0.25000008  0.36398703  1
  S  S18  1  0.55496058  0.75000021  0.63601145  1
  S  S19  1  0.05496062  0.75000024  0.86398814  1
