# generated using pymatgen
data_BaUSe3
_symmetry_space_group_name_H-M   'P 1'
_cell_length_a   7.79833127
_cell_length_b   10.80735258
_cell_length_c   7.54811902
_cell_angle_alpha   90.00000010
_cell_angle_beta   89.99999600
_cell_angle_gamma   89.99999818
_symmetry_Int_Tables_number   1
_chemical_formula_structural   BaUSe3
_chemical_formula_sum   'Ba4 U4 Se12'
_cell_volume   636.15030528
_cell_formula_units_Z   4
loop_
 _symmetry_equiv_pos_site_id
 _symmetry_equiv_pos_as_xyz
  1  'x, y, z'
loop_
 _atom_site_type_symbol
 _atom_site_label
 _atom_site_symmetry_multiplicity
 _atom_site_fract_x
 _atom_site_fract_y
 _atom_site_fract_z
 _atom_site_occupancy
  Ba  Ba0  1  1.06059548  0.24993624  1.08043132  1
  Ba  Ba1  1  0.56363875  0.25005727  0.41236215  1
  Ba  Ba2  1  0.43627067  0.75004321  0.58722385  1
  Ba  Ba3  1  -0.06009970  0.74996642  -0.08058389  1
  U  U4  1  -0.00005081  0.50003296  0.50001289  1
  U  U5  1  -0.00008672  -0.00002510  0.50002262  1
  U  U6  1  0.50013031  -0.00000674  0.00003952  1
  U  U7  1  0.50006819  0.49999692  -0.00000720  1
  Se  Se8  1  0.83010955  0.48959582  0.17627935  1
  Se  Se9  1  0.83004861  1.01038375  0.17636945  1
  Se  Se10  1  0.33246758  1.00417757  0.32606215  1
  Se  Se11  1  0.66729929  0.50428722  0.67383550  1
  Se  Se12  1  0.16992919  -0.01018244  0.82358497  1
  Se  Se13  1  0.66729049  -0.00424636  0.67387208  1
  Se  Se14  1  0.33246640  0.49599397  0.32607655  1
  Se  Se15  1  0.16984815  0.51003024  0.82360310  1
  Se  Se16  1  1.03629893  0.74999536  0.48404991  1
  Se  Se17  1  0.54488385  0.74996802  1.00561418  1
  Se  Se18  1  0.45491278  0.25000358  -0.00432473  1
  Se  Se19  1  -0.03644331  0.24999384  0.51575854  1
