# generated using pymatgen
data_BaUS3
_symmetry_space_group_name_H-M   'P 1'
_cell_length_a   7.53813553
_cell_length_b   10.38862365
_cell_length_c   7.21044828
_cell_angle_alpha   89.99999998
_cell_angle_beta   89.99999982
_cell_angle_gamma   89.99999999
_symmetry_Int_Tables_number   1
_chemical_formula_structural   BaUS3
_chemical_formula_sum   'Ba4 U4 S12'
_cell_volume   564.65635638
_cell_formula_units_Z   4
loop_
 _symmetry_equiv_pos_site_id
 _symmetry_equiv_pos_as_xyz
  1  'x, y, z'
loop_
 _atom_site_type_symbol
 _atom_site_label
 _atom_site_symmetry_multiplicity
 _atom_site_fract_x
 _atom_site_fract_y
 _atom_site_fract_z
 _atom_site_occupancy
  Ba  Ba0  1  0.99196101  0.25069044  0.53391250  1
  Ba  Ba1  1  0.52114270  0.25102431  0.00021236  1
  Ba  Ba2  1  0.47885819  0.74894553  0.99978843  1
  Ba  Ba3  1  0.00804257  0.74931115  0.46607583  1
  U  U4  1  0.00000299  0.50000260  0.00002387  1
  U  U5  1  -0.00000266  0.00000370  -0.00002868  1
  U  U6  1  0.49999843  0.00000407  0.49999163  1
  U  U7  1  0.50000211  0.50000011  0.50001675  1
  S  S8  1  0.74144395  0.46824166  0.75722348  1
  S  S9  1  0.74489566  1.03127138  0.75476416  1
  S  S10  1  0.27401614  1.04689972  0.75744027  1
  S  S11  1  0.72824617  0.54789327  0.24583877  1
  S  S12  1  0.25508568  -0.03127899  0.24521798  1
  S  S13  1  0.72597324  -0.04687666  0.24256964  1
  S  S14  1  0.27175961  0.45211850  0.75417665  1
  S  S15  1  0.25857410  0.53175460  0.24280137  1
  S  S16  1  1.03243464  0.74911154  -0.07312502  1
  S  S17  1  0.52767321  0.75029016  0.59889495  1
  S  S18  1  0.47229637  0.24972516  0.40109811  1
  S  S19  1  -0.03242433  0.25089425  1.07311979  1
