# generated using pymatgen
data_BaUS3
_symmetry_space_group_name_H-M   'P 1'
_cell_length_a   7.53813554
_cell_length_b   10.38862365
_cell_length_c   7.21044828
_cell_angle_alpha   90.00000000
_cell_angle_beta   89.99999983
_cell_angle_gamma   90.00000000
_symmetry_Int_Tables_number   1
_chemical_formula_structural   BaUS3
_chemical_formula_sum   'Ba4 U4 S12'
_cell_volume   564.65635618
_cell_formula_units_Z   4
loop_
 _symmetry_equiv_pos_site_id
 _symmetry_equiv_pos_as_xyz
  1  'x, y, z'
loop_
 _atom_site_type_symbol
 _atom_site_label
 _atom_site_symmetry_multiplicity
 _atom_site_fract_x
 _atom_site_fract_y
 _atom_site_fract_z
 _atom_site_occupancy
  Ba  Ba0  1  0.94828389  0.25000000  0.48143813  1
  Ba  Ba1  1  0.44828389  0.25000000  0.01856187  1
  Ba  Ba2  1  0.55171611  0.75000000  0.98143813  1
  Ba  Ba3  1  0.05171611  0.75000000  0.51856187  1
  U  U4  1  0.00000000  0.50000000  0.00000000  1
  U  U5  1  -0.00000000  -0.00000000  0.00000000  1
  U  U6  1  0.50000000  -0.00000000  0.50000000  1
  U  U7  1  0.50000000  0.50000000  0.50000000  1
  S  S8  1  0.78355947  0.54463308  0.70762892  1
  S  S9  1  0.78355946  0.95536693  0.70762891  1
  S  S10  1  0.28355945  0.95536693  0.79237109  1
  S  S11  1  0.71644055  0.45536693  0.20762891  1
  S  S12  1  0.21644054  0.04463308  0.29237109  1
  S  S13  1  0.71644055  0.04463307  0.20762891  1
  S  S14  1  0.28355945  0.54463307  0.79237109  1
  S  S15  1  0.21644053  0.45536693  0.29237108  1
  S  S16  1  0.97723520  0.75000000  0.08752085  1
  S  S17  1  0.47723520  0.75000000  0.41247915  1
  S  S18  1  0.52276480  0.25000000  0.58752085  1
  S  S19  1  0.02276480  0.25000000  0.91247915  1
