# generated using pymatgen
data_BaUSe3
_symmetry_space_group_name_H-M   'P 1'
_cell_length_a   7.79833092
_cell_length_b   10.80735239
_cell_length_c   7.54811885
_cell_angle_alpha   90.00000120
_cell_angle_beta   89.99999872
_cell_angle_gamma   90.00000057
_symmetry_Int_Tables_number   1
_chemical_formula_structural   BaUSe3
_chemical_formula_sum   'Ba4 U4 Se12'
_cell_volume   636.15025104
_cell_formula_units_Z   4
loop_
 _symmetry_equiv_pos_site_id
 _symmetry_equiv_pos_as_xyz
  1  'x, y, z'
loop_
 _atom_site_type_symbol
 _atom_site_label
 _atom_site_symmetry_multiplicity
 _atom_site_fract_x
 _atom_site_fract_y
 _atom_site_fract_z
 _atom_site_occupancy
  Ba  Ba0  1  0.93171477  0.25000005  0.97427199  1
  Ba  Ba1  1  0.43171484  0.25000007  0.52572800  1
  Ba  Ba2  1  0.56828516  0.74999997  0.47427196  1
  Ba  Ba3  1  0.06828516  0.75000001  0.02572813  1
  U  U4  1  -0.00000003  0.50000001  0.50000000  1
  U  U5  1  0.00000002  0.00000002  0.49999999  1
  U  U6  1  0.50000003  0.00000005  0.00000002  1
  U  U7  1  0.50000004  0.50000004  0.00000011  1
  Se  Se8  1  0.80086900  0.55292005  0.19564267  1
  Se  Se9  1  0.80086918  0.94708009  0.19564296  1
  Se  Se10  1  0.30086896  0.94708001  0.30435727  1
  Se  Se11  1  0.69913063  0.44707991  0.69564285  1
  Se  Se12  1  0.19913081  0.05292004  0.80435698  1
  Se  Se13  1  0.69913107  0.05292005  0.69564265  1
  Se  Se14  1  0.30086941  0.55292005  0.30435726  1
  Se  Se15  1  0.19913087  0.44708001  0.80435719  1
  Se  Se16  1  0.97225264  0.74999970  0.60780771  1
  Se  Se17  1  0.47225273  0.74999991  0.89219262  1
  Se  Se18  1  0.52774725  0.25000015  0.10780732  1
  Se  Se19  1  0.02774745  0.24999981  0.39219230  1
