# generated using pymatgen
data_BaZrS3
_symmetry_space_group_name_H-M   'P 1'
_cell_length_a   7.13419187
_cell_length_b   10.07157822
_cell_length_c   7.13828329
_cell_angle_alpha   89.99999988
_cell_angle_beta   90.00000015
_cell_angle_gamma   89.99999993
_symmetry_Int_Tables_number   1
_chemical_formula_structural   BaZrS3
_chemical_formula_sum   'Ba4 Zr4 S12'
_cell_volume   512.90401034
_cell_formula_units_Z   4
loop_
 _symmetry_equiv_pos_site_id
 _symmetry_equiv_pos_as_xyz
  1  'x, y, z'
loop_
 _atom_site_type_symbol
 _atom_site_label
 _atom_site_symmetry_multiplicity
 _atom_site_fract_x
 _atom_site_fract_y
 _atom_site_fract_z
 _atom_site_occupancy
  Ba  Ba0  1  0.94907616  0.75000000  0.51338450  1
  Ba  Ba1  1  0.44907617  0.74999999  0.98661550  1
  Ba  Ba2  1  0.55092384  0.25000000  0.01338449  1
  Ba  Ba3  1  0.05092383  0.25000000  0.48661551  1
  Zr  Zr4  1  -0.00000003  0.49999999  -0.00000003  1
  Zr  Zr5  1  0.00000000  0.00000000  -0.00000002  1
  Zr  Zr6  1  0.49999997  0.00000001  0.50000001  1
  Zr  Zr7  1  0.50000000  0.49999999  0.50000002  1
  S  S8  1  0.78713724  0.03717118  0.28771288  1
  S  S9  1  0.78713724  0.46282881  0.28771290  1
  S  S10  1  0.28713721  0.46282881  0.21228708  1
  S  S11  1  0.71286276  0.96282882  0.78771289  1
  S  S12  1  0.21286278  0.53717118  0.71228709  1
  S  S13  1  0.71286280  0.53717118  0.78771294  1
  S  S14  1  0.28713725  0.03717119  0.21228714  1
  S  S15  1  0.21286277  0.96282882  0.71228710  1
  S  S16  1  0.98710322  0.25000000  0.92761311  1
  S  S17  1  0.48710322  0.25000001  0.57238690  1
  S  S18  1  0.51289679  0.74999999  0.42761310  1
  S  S19  1  0.01289679  0.75000000  0.07238690  1
