# generated using pymatgen
data_CaCeS3
_symmetry_space_group_name_H-M   'P 1'
_cell_length_a   7.29864367
_cell_length_b   9.86740518
_cell_length_c   6.82644141
_cell_angle_alpha   90.00000104
_cell_angle_beta   89.99999523
_cell_angle_gamma   90.00000065
_symmetry_Int_Tables_number   1
_chemical_formula_structural   CaCeS3
_chemical_formula_sum   'Ca4 Ce4 S12'
_cell_volume   491.63126059
_cell_formula_units_Z   4
loop_
 _symmetry_equiv_pos_site_id
 _symmetry_equiv_pos_as_xyz
  1  'x, y, z'
loop_
 _atom_site_type_symbol
 _atom_site_label
 _atom_site_symmetry_multiplicity
 _atom_site_fract_x
 _atom_site_fract_y
 _atom_site_fract_z
 _atom_site_occupancy
  Ca  Ca0  1  0.00000020  0.50000002  0.50000032  1
  Ca  Ca1  1  0.00000016  0.00000019  0.50000004  1
  Ca  Ca2  1  0.50000016  -0.00000003  -0.00000039  1
  Ca  Ca3  1  0.50000016  0.49999995  -0.00000012  1
  Ce  Ce4  1  0.90827000  0.25000017  0.04292908  1
  Ce  Ce5  1  0.40826989  0.24999957  0.45707082  1
  Ce  Ce6  1  0.59173116  0.74999974  0.54292924  1
  Ce  Ce7  1  0.09173126  0.74999998  0.95707045  1
  S  S8  1  0.81079597  0.59055242  0.81425143  1
  S  S9  1  0.81079665  0.90944736  0.81425190  1
  S  S10  1  0.31079599  0.90944740  0.68574847  1
  S  S11  1  0.68920409  0.40944750  0.31425151  1
  S  S12  1  0.18920416  0.09055248  0.18574866  1
  S  S13  1  0.68920318  0.09055241  0.31425251  1
  S  S14  1  0.31079665  0.59055281  0.68574804  1
  S  S15  1  0.18920302  0.40944789  0.18574739  1
  S  S16  1  0.90843936  0.74999997  0.31300754  1
  S  S17  1  0.40843966  0.75000004  0.18699278  1
  S  S18  1  0.59155912  0.25000009  0.81300602  1
  S  S19  1  0.09155914  0.25000002  0.68699429  1
