# generated using pymatgen
data_CaCeS3
_symmetry_space_group_name_H-M   'P 1'
_cell_length_a   7.29864417
_cell_length_b   9.86740545
_cell_length_c   6.82644053
_cell_angle_alpha   89.99999514
_cell_angle_beta   89.99999747
_cell_angle_gamma   90.00000048
_symmetry_Int_Tables_number   1
_chemical_formula_structural   CaCeS3
_chemical_formula_sum   'Ca4 Ce4 S12'
_cell_volume   491.63124478
_cell_formula_units_Z   4
loop_
 _symmetry_equiv_pos_site_id
 _symmetry_equiv_pos_as_xyz
  1  'x, y, z'
loop_
 _atom_site_type_symbol
 _atom_site_label
 _atom_site_symmetry_multiplicity
 _atom_site_fract_x
 _atom_site_fract_y
 _atom_site_fract_z
 _atom_site_occupancy
  Ca  Ca0  1  -0.01010609  0.49484635  0.52362660  1
  Ca  Ca1  1  0.00270938  0.02999833  0.46151038  1
  Ca  Ca2  1  0.50911678  -0.00446715  -0.02134766  1
  Ca  Ca3  1  0.48956954  0.50852166  0.02325558  1
  Ce  Ce4  1  0.90311338  0.25828911  0.03712572  1
  Ce  Ce5  1  0.42913356  0.24475582  0.46544536  1
  Ce  Ce6  1  0.58118101  0.71851049  0.53513897  1
  Ce  Ce7  1  0.09182605  0.75854961  0.98060784  1
  S  S8  1  0.84048715  0.54348546  0.88405608  1
  S  S9  1  0.82480184  0.88621037  0.80249366  1
  S  S10  1  0.36015701  0.96099569  0.61097857  1
  S  S11  1  0.64750649  0.46066416  0.37286644  1
  S  S12  1  0.15952720  0.04929389  0.10175104  1
  S  S13  1  0.67968245  0.10662553  0.26726705  1
  S  S14  1  0.27883579  0.61196060  0.71377993  1
  S  S15  1  0.19114836  0.38223065  0.19108285  1
  S  S16  1  0.91287648  0.77454766  0.32920416  1
  S  S17  1  0.41512163  0.76525137  0.18657652  1
  S  S18  1  0.59008821  0.25786251  0.81861851  1
  S  S19  1  0.08769488  0.25169551  0.65746194  1
