# generated using pymatgen
data_CaUSe3
_symmetry_space_group_name_H-M   'P 1'
_cell_length_a   7.82345936
_cell_length_b   10.17495844
_cell_length_c   7.02697894
_cell_angle_alpha   90.00000004
_cell_angle_beta   90.00000014
_cell_angle_gamma   90.00000100
_symmetry_Int_Tables_number   1
_chemical_formula_structural   CaUSe3
_chemical_formula_sum   'Ca4 U4 Se12'
_cell_volume   559.37123142
_cell_formula_units_Z   4
loop_
 _symmetry_equiv_pos_site_id
 _symmetry_equiv_pos_as_xyz
  1  'x, y, z'
loop_
 _atom_site_type_symbol
 _atom_site_label
 _atom_site_symmetry_multiplicity
 _atom_site_fract_x
 _atom_site_fract_y
 _atom_site_fract_z
 _atom_site_occupancy
  Ca  Ca0  1  0.91521542  0.25000001  0.54050097  1
  Ca  Ca1  1  0.41521532  0.25000000  0.95949907  1
  Ca  Ca2  1  0.58478470  0.74999999  0.04050108  1
  Ca  Ca3  1  0.08478465  0.74999998  0.45949885  1
  U  U4  1  0.00000001  0.49999999  -0.00000002  1
  U  U5  1  -0.00000009  -0.00000001  -0.00000001  1
  U  U6  1  0.50000000  0.00000009  0.50000000  1
  U  U7  1  0.50000008  0.49999994  0.50000001  1
  Se  Se8  1  0.80443561  0.57340681  0.31623405  1
  Se  Se9  1  0.80443563  0.92659313  0.31623400  1
  Se  Se10  1  0.30443569  0.92659313  0.18376605  1
  Se  Se11  1  0.69556431  0.42659310  0.81623394  1
  Se  Se12  1  0.19556436  0.07340687  0.68376593  1
  Se  Se13  1  0.69556434  0.07340687  0.81623399  1
  Se  Se14  1  0.30443563  0.57340683  0.18376603  1
  Se  Se15  1  0.19556440  0.42659317  0.68376593  1
  Se  Se16  1  0.92639207  0.75000002  0.84172871  1
  Se  Se17  1  0.42639198  0.75000003  0.65827154  1
  Se  Se18  1  0.57360794  0.25000001  0.34172849  1
  Se  Se19  1  0.07360796  0.25000004  0.15827140  1
