# generated using pymatgen
data_CaUSe3
_symmetry_space_group_name_H-M   'P 1'
_cell_length_a   7.82345930
_cell_length_b   10.17495875
_cell_length_c   7.02697889
_cell_angle_alpha   89.99999973
_cell_angle_beta   89.99999968
_cell_angle_gamma   89.99999957
_symmetry_Int_Tables_number   1
_chemical_formula_structural   CaUSe3
_chemical_formula_sum   'Ca4 U4 Se12'
_cell_volume   559.37124057
_cell_formula_units_Z   4
loop_
 _symmetry_equiv_pos_site_id
 _symmetry_equiv_pos_as_xyz
  1  'x, y, z'
loop_
 _atom_site_type_symbol
 _atom_site_label
 _atom_site_symmetry_multiplicity
 _atom_site_fract_x
 _atom_site_fract_y
 _atom_site_fract_z
 _atom_site_occupancy
  Ca  Ca0  1  0.88264057  0.25760682  0.52820142  1
  Ca  Ca1  1  0.38228771  0.24321087  0.97225497  1
  Ca  Ca2  1  0.61772983  0.74324613  0.02775281  1
  Ca  Ca3  1  0.11730719  0.75754805  0.47180200  1
  U  U4  1  0.00513250  0.49714843  0.02200425  1
  U  U5  1  -0.00509359  -0.00286414  -0.02199048  1
  U  U6  1  0.50533951  0.00293276  0.47821455  1
  U  U7  1  0.49464784  0.50293106  0.52176640  1
  Se  Se8  1  0.83458147  0.55252570  0.36713223  1
  Se  Se9  1  0.83118025  0.93352569  0.33263638  1
  Se  Se10  1  0.33385686  0.94712507  0.13383551  1
  Se  Se11  1  0.66613387  0.44710842  0.86614899  1
  Se  Se12  1  0.16547124  0.05256823  0.63289735  1
  Se  Se13  1  0.66809640  0.06603921  0.83364231  1
  Se  Se14  1  0.33193596  0.56608995  0.16635343  1
  Se  Se15  1  0.16883998  0.43353183  0.66739022  1
  Se  Se16  1  0.95406993  0.74055680  0.87299259  1
  Se  Se17  1  0.45384544  0.75953717  0.62682452  1
  Se  Se18  1  0.54606345  0.25955458  0.37312935  1
  Se  Se19  1  0.04586367  0.24057304  0.12702723  1
