# generated using pymatgen
data_CeCdS3
_symmetry_space_group_name_H-M   'P 1'
_cell_length_a   7.31157085
_cell_length_b   9.61076631
_cell_length_c   6.59790028
_cell_angle_alpha   90.00000189
_cell_angle_beta   90.00000103
_cell_angle_gamma   89.99999995
_symmetry_Int_Tables_number   1
_chemical_formula_structural   CeCdS3
_chemical_formula_sum   'Ce4 Cd4 S12'
_cell_volume   463.63312504
_cell_formula_units_Z   4
loop_
 _symmetry_equiv_pos_site_id
 _symmetry_equiv_pos_as_xyz
  1  'x, y, z'
loop_
 _atom_site_type_symbol
 _atom_site_label
 _atom_site_symmetry_multiplicity
 _atom_site_fract_x
 _atom_site_fract_y
 _atom_site_fract_z
 _atom_site_occupancy
  Ce  Ce0  1  0.88569596  0.75000001  0.04609255  1
  Ce  Ce1  1  0.38569641  0.74999975  0.45390772  1
  Ce  Ce2  1  0.61430433  0.25000009  0.54609288  1
  Ce  Ce3  1  0.11430420  0.24999979  0.95390783  1
  Cd  Cd4  1  -0.00000041  0.50000017  0.49999974  1
  Cd  Cd5  1  0.00000123  0.00000022  0.50000038  1
  Cd  Cd6  1  0.49999954  -0.00000008  0.00000020  1
  Cd  Cd7  1  0.49999883  0.50000046  -0.00000006  1
  S  S8  1  0.82695578  0.08105894  0.82173173  1
  S  S9  1  0.82695615  0.41894094  0.82173167  1
  S  S10  1  0.32695622  0.41894089  0.67826771  1
  S  S11  1  0.67304435  0.91894104  0.32173154  1
  S  S12  1  0.17304424  0.58105914  0.17826858  1
  S  S13  1  0.67304432  0.58105882  0.32173178  1
  S  S14  1  0.32695611  0.08105902  0.67826834  1
  S  S15  1  0.17304335  0.91894107  0.17826799  1
  S  S16  1  0.93632997  0.24999989  0.32752175  1
  S  S17  1  0.43633052  0.25000008  0.17247777  1
  S  S18  1  0.56366967  0.74999990  0.82752138  1
  S  S19  1  0.06366925  0.74999986  0.67247852  1
