# generated using pymatgen
data_CeScS3
_symmetry_space_group_name_H-M   'P 1'
_cell_length_a   7.23254657
_cell_length_b   9.54245917
_cell_length_c   6.49157253
_cell_angle_alpha   89.99999995
_cell_angle_beta   89.99999746
_cell_angle_gamma   89.99999901
_symmetry_Int_Tables_number   1
_chemical_formula_structural   CeScS3
_chemical_formula_sum   'Ce4 Sc4 S12'
_cell_volume   448.02418990
_cell_formula_units_Z   4
loop_
 _symmetry_equiv_pos_site_id
 _symmetry_equiv_pos_as_xyz
  1  'x, y, z'
loop_
 _atom_site_type_symbol
 _atom_site_label
 _atom_site_symmetry_multiplicity
 _atom_site_fract_x
 _atom_site_fract_y
 _atom_site_fract_z
 _atom_site_occupancy
  Ce  Ce0  1  0.90278511  0.75000035  0.03919586  1
  Ce  Ce1  1  0.40278489  0.74999997  0.46080376  1
  Ce  Ce2  1  0.59721475  0.25000006  0.53919594  1
  Ce  Ce3  1  0.09721468  0.25000022  0.96080441  1
  Sc  Sc4  1  -0.00000014  0.49999996  0.50000000  1
  Sc  Sc5  1  -0.00000000  0.00000009  0.49999996  1
  Sc  Sc6  1  0.50000004  -0.00000005  0.00000010  1
  Sc  Sc7  1  0.50000011  0.50000000  -0.00000013  1
  S  S8  1  0.81047098  0.06420170  0.82524715  1
  S  S9  1  0.81047119  0.43579793  0.82524725  1
  S  S10  1  0.31047119  0.43579821  0.67475268  1
  S  S11  1  0.68952900  0.93579802  0.32524718  1
  S  S12  1  0.18952907  0.56420174  0.17475286  1
  S  S13  1  0.68952884  0.56420195  0.32524738  1
  S  S14  1  0.31047117  0.06420190  0.67475265  1
  S  S15  1  0.18952870  0.93579801  0.17475257  1
  S  S16  1  0.95547924  0.25000001  0.36307720  1
  S  S17  1  0.45547917  0.24999996  0.13692281  1
  S  S18  1  0.54452090  0.74999994  0.86307773  1
  S  S19  1  0.04452112  0.75000003  0.63692264  1
