# generated using pymatgen
data_CeUS3
_symmetry_space_group_name_H-M   'P 1'
_cell_length_a   7.33649874
_cell_length_b   10.52371505
_cell_length_c   6.50180925
_cell_angle_alpha   90.00000038
_cell_angle_beta   89.99999786
_cell_angle_gamma   90.00000087
_symmetry_Int_Tables_number   1
_chemical_formula_structural   CeUS3
_chemical_formula_sum   'Ce4 U4 S12'
_cell_volume   501.98663120
_cell_formula_units_Z   4
loop_
 _symmetry_equiv_pos_site_id
 _symmetry_equiv_pos_as_xyz
  1  'x, y, z'
loop_
 _atom_site_type_symbol
 _atom_site_label
 _atom_site_symmetry_multiplicity
 _atom_site_fract_x
 _atom_site_fract_y
 _atom_site_fract_z
 _atom_site_occupancy
  Ce  Ce0  1  -0.04915554  0.51498153  0.46833808  1
  Ce  Ce1  1  0.05008062  0.01412193  0.52999090  1
  Ce  Ce2  1  0.54996187  0.01437867  -0.03036482  1
  Ce  Ce3  1  0.45074048  0.51531408  0.03215832  1
  U  U4  1  0.91446911  0.74224176  0.93478937  1
  U  U5  1  0.41458113  0.74204398  0.56494541  1
  U  U6  1  0.58478206  0.24390211  0.43875421  1
  U  U7  1  0.08497646  0.24404314  0.06142760  1
  S  S8  1  0.82425396  0.08041193  0.20829496  1
  S  S9  1  0.77701061  0.39192648  0.14897185  1
  S  S10  1  0.27744899  0.39213808  0.35119794  1
  S  S11  1  0.72315718  0.89126300  0.65362534  1
  S  S12  1  0.17867794  0.57832585  0.78327661  1
  S  S13  1  0.67869803  0.57835179  0.71679640  1
  S  S14  1  0.32410495  0.08079419  0.29161766  1
  S  S15  1  0.22354208  0.89119688  0.84647742  1
  S  S16  1  0.89280782  0.26684610  0.67286276  1
  S  S17  1  0.39261215  0.26700392  0.82684598  1
  S  S18  1  0.60470396  0.76555026  0.17714284  1
  S  S19  1  0.10471335  0.76540355  0.32297157  1
