# generated using pymatgen
data_CeUSe3
_symmetry_space_group_name_H-M   'P 1'
_cell_length_a   7.78679349
_cell_length_b   10.61012423
_cell_length_c   6.70061872
_cell_angle_alpha   90.00001218
_cell_angle_beta   90.00000231
_cell_angle_gamma   90.00000010
_symmetry_Int_Tables_number   1
_chemical_formula_structural   CeUSe3
_chemical_formula_sum   'Ce4 U4 Se12'
_cell_volume   553.59738775
_cell_formula_units_Z   4
loop_
 _symmetry_equiv_pos_site_id
 _symmetry_equiv_pos_as_xyz
  1  'x, y, z'
loop_
 _atom_site_type_symbol
 _atom_site_label
 _atom_site_symmetry_multiplicity
 _atom_site_fract_x
 _atom_site_fract_y
 _atom_site_fract_z
 _atom_site_occupancy
  Ce  Ce0  1  -0.00693868  0.50866873  0.52579065  1
  Ce  Ce1  1  -0.00349633  0.00075044  0.46177571  1
  Ce  Ce2  1  0.50573124  -0.00094584  -0.04236522  1
  Ce  Ce3  1  0.51043958  0.49080118  0.02917777  1
  U  U4  1  0.87871699  0.24158035  0.94848384  1
  U  U5  1  0.38390122  0.28654746  0.55892503  1
  U  U6  1  0.62065169  0.76118668  0.45061325  1
  U  U7  1  0.11308195  0.71194634  0.06070260  1
  Se  Se8  1  0.81203008  0.59530652  0.18438386  1
  Se  Se9  1  0.83387054  0.90094252  0.12045337  1
  Se  Se10  1  0.30864336  0.89012205  0.30436308  1
  Se  Se11  1  0.68787630  0.40392188  0.68399762  1
  Se  Se12  1  0.19208207  0.10867628  0.80900195  1
  Se  Se13  1  0.66723555  0.09693931  0.61230819  1
  Se  Se14  1  0.34658767  0.56424202  0.37456006  1
  Se  Se15  1  0.15372142  0.43971115  0.87354444  1
  Se  Se16  1  0.94374405  0.76444235  0.68097434  1
  Se  Se17  1  0.46615755  0.73970583  0.82954031  1
  Se  Se18  1  0.55488953  0.23488376  0.18121762  1
  Se  Se19  1  0.03398135  0.25859312  0.33467503  1
