# generated using pymatgen
data_CeUS3
_symmetry_space_group_name_H-M   'P 1'
_cell_length_a   7.33649967
_cell_length_b   10.52371250
_cell_length_c   6.50180848
_cell_angle_alpha   89.99999649
_cell_angle_beta   89.99999884
_cell_angle_gamma   90.00001138
_symmetry_Int_Tables_number   1
_chemical_formula_structural   CeUS3
_chemical_formula_sum   'Ce4 U4 S12'
_cell_volume   501.98651384
_cell_formula_units_Z   4
loop_
 _symmetry_equiv_pos_site_id
 _symmetry_equiv_pos_as_xyz
  1  'x, y, z'
loop_
 _atom_site_type_symbol
 _atom_site_label
 _atom_site_symmetry_multiplicity
 _atom_site_fract_x
 _atom_site_fract_y
 _atom_site_fract_z
 _atom_site_occupancy
  Ce  Ce0  1  -0.00000044  0.50000094  0.49999846  1
  Ce  Ce1  1  0.00000042  0.00000010  0.50000114  1
  Ce  Ce2  1  0.50000043  0.00000097  -0.00000135  1
  Ce  Ce3  1  0.49999992  0.50000065  0.00000130  1
  U  U4  1  0.89420494  0.74999976  0.94416723  1
  U  U5  1  0.39420498  0.74999976  0.55583273  1
  U  U6  1  0.60579493  0.24999981  0.44416735  1
  U  U7  1  0.10579463  0.24999968  0.05583281  1
  S  S8  1  0.81789634  0.09370584  0.16723835  1
  S  S9  1  0.81789572  0.40629323  0.16723759  1
  S  S10  1  0.31789595  0.40629312  0.33276255  1
  S  S11  1  0.68210431  0.90629321  0.66723764  1
  S  S12  1  0.18210364  0.59370550  0.83276214  1
  S  S13  1  0.68210354  0.59370564  0.66723780  1
  S  S14  1  0.31789657  0.09370548  0.33276227  1
  S  S15  1  0.18210435  0.90629318  0.83276250  1
  S  S16  1  0.92786286  0.25000099  0.67109844  1
  S  S17  1  0.42786256  0.25000062  0.82890136  1
  S  S18  1  0.57213706  0.75000096  0.17109799  1
  S  S19  1  0.07213728  0.75000057  0.32890172  1
