# generated using pymatgen
data_DyInS3
_symmetry_space_group_name_H-M   'P 1'
_cell_length_a   6.98089270
_cell_length_b   10.27398761
_cell_length_c   6.77625486
_cell_angle_alpha   89.99999719
_cell_angle_beta   90.00000286
_cell_angle_gamma   89.99999887
_symmetry_Int_Tables_number   1
_chemical_formula_structural   DyInS3
_chemical_formula_sum   'Dy4 In4 S12'
_cell_volume   486.00387523
_cell_formula_units_Z   4
loop_
 _symmetry_equiv_pos_site_id
 _symmetry_equiv_pos_as_xyz
  1  'x, y, z'
loop_
 _atom_site_type_symbol
 _atom_site_label
 _atom_site_symmetry_multiplicity
 _atom_site_fract_x
 _atom_site_fract_y
 _atom_site_fract_z
 _atom_site_occupancy
  Dy  Dy0  1  0.00000013  0.49999999  0.50000024  1
  Dy  Dy1  1  0.00000013  -0.00000004  0.50000012  1
  Dy  Dy2  1  0.49999997  0.00000003  0.00000002  1
  Dy  Dy3  1  0.50000009  0.49999974  0.00000016  1
  In  In4  1  0.98985931  0.25000003  -0.03069270  1
  In  In5  1  0.48985934  0.25000001  0.53069264  1
  In  In6  1  0.51014049  0.74999997  0.46930695  1
  In  In7  1  0.01014065  0.74999998  1.03069294  1
  S  S8  1  0.84735400  0.56726949  0.85487093  1
  S  S9  1  0.84735405  0.93273067  0.85487097  1
  S  S10  1  0.34735389  0.93273059  0.64512900  1
  S  S11  1  0.65264614  0.43273065  0.35487100  1
  S  S12  1  0.15264620  0.06726950  0.14512904  1
  S  S13  1  0.65264601  0.06726937  0.35487083  1
  S  S14  1  0.34735418  0.56726946  0.64512907  1
  S  S15  1  0.15264609  0.43273057  0.14512905  1
  S  S16  1  0.88054252  0.74999992  0.38614253  1
  S  S17  1  0.38054243  0.74999986  0.11385740  1
  S  S18  1  0.61945727  0.25000008  0.88614227  1
  S  S19  1  0.11945714  0.25000014  0.61385754  1
