# generated using pymatgen
data_DyInS3
_symmetry_space_group_name_H-M   'P 1'
_cell_length_a   6.98089239
_cell_length_b   10.27398737
_cell_length_c   6.77625498
_cell_angle_alpha   89.99999984
_cell_angle_beta   90.00000011
_cell_angle_gamma   89.99999868
_symmetry_Int_Tables_number   1
_chemical_formula_structural   DyInS3
_chemical_formula_sum   'Dy4 In4 S12'
_cell_volume   486.00385127
_cell_formula_units_Z   4
loop_
 _symmetry_equiv_pos_site_id
 _symmetry_equiv_pos_as_xyz
  1  'x, y, z'
loop_
 _atom_site_type_symbol
 _atom_site_label
 _atom_site_symmetry_multiplicity
 _atom_site_fract_x
 _atom_site_fract_y
 _atom_site_fract_z
 _atom_site_occupancy
  Dy  Dy0  1  0.03285193  0.48654357  0.51381086  1
  Dy  Dy1  1  -0.03207664  -0.00290043  0.50757571  1
  Dy  Dy2  1  0.46119457  -0.00072337  0.00427882  1
  Dy  Dy3  1  0.54130267  0.48670055  -0.01189433  1
  In  In4  1  0.98814627  0.26942842  -0.01766182  1
  In  In5  1  0.47502878  0.27987353  0.48265113  1
  In  In6  1  0.52520328  0.78236398  0.48744314  1
  In  In7  1  0.02557751  0.78339162  1.01846675  1
  S  S8  1  0.92719635  0.55381440  0.87916745  1
  S  S9  1  0.73977186  0.88807706  0.82304240  1
  S  S10  1  0.24172400  0.88712770  0.69621317  1
  S  S11  1  0.73067829  0.39116459  0.32157093  1
  S  S12  1  0.08301884  0.05076907  0.13782275  1
  S  S13  1  0.57519503  0.04804621  0.37325685  1
  S  S14  1  0.40971211  0.55300234  0.63074423  1
  S  S15  1  0.23878955  0.38046697  0.18501651  1
  S  S16  1  0.88186199  0.73433441  0.36685716  1
  S  S17  1  0.37640284  0.74570989  0.14670892  1
  S  S18  1  0.61240225  0.26074936  0.83494884  1
  S  S19  1  0.11667898  0.24866135  0.63907126  1
