# generated using pymatgen
data_DyScS3
_symmetry_space_group_name_H-M   'P 1'
_cell_length_a   7.03427324
_cell_length_b   9.50594916
_cell_length_c   6.36402139
_cell_angle_alpha   90.00000032
_cell_angle_beta   90.00000047
_cell_angle_gamma   89.99999947
_symmetry_Int_Tables_number   1
_chemical_formula_structural   DyScS3
_chemical_formula_sum   'Dy4 Sc4 S12'
_cell_volume   425.54584220
_cell_formula_units_Z   4
loop_
 _symmetry_equiv_pos_site_id
 _symmetry_equiv_pos_as_xyz
  1  'x, y, z'
loop_
 _atom_site_type_symbol
 _atom_site_label
 _atom_site_symmetry_multiplicity
 _atom_site_fract_x
 _atom_site_fract_y
 _atom_site_fract_z
 _atom_site_occupancy
  Dy  Dy0  1  0.88463521  0.74479787  0.96936696  1
  Dy  Dy1  1  0.37171584  0.76046589  0.53311006  1
  Dy  Dy2  1  0.62974661  0.26053360  0.46665391  1
  Dy  Dy3  1  0.11404453  0.24601050  0.03170885  1
  Sc  Sc4  1  0.01566866  0.50135740  0.51274014  1
  Sc  Sc5  1  -0.01655209  0.00143339  0.48647717  1
  Sc  Sc6  1  0.49191722  0.00015633  0.01222029  1
  Sc  Sc7  1  0.50793363  0.50031067  -0.01196913  1
  S  S8  1  0.81234684  0.08409109  0.15866935  1
  S  S9  1  0.82000444  0.41621969  0.14298159  1
  S  S10  1  0.31910248  0.41675635  0.33656667  1
  S  S11  1  0.68107615  0.91505930  0.66414710  1
  S  S12  1  0.18635913  0.58307041  0.83894434  1
  S  S13  1  0.69516994  0.56669450  0.65820267  1
  S  S14  1  0.30391715  0.06584011  0.33960330  1
  S  S15  1  0.18153352  0.91592469  0.85616351  1
  S  S16  1  0.95540697  0.23816024  0.64116810  1
  S  S17  1  0.44703739  0.24767825  0.86846167  1
  S  S18  1  0.55387302  0.74764893  0.13291102  1
  S  S19  1  0.04489994  0.73843891  0.35866935  1
