# generated using pymatgen
data_DyScS3
_symmetry_space_group_name_H-M   'P 1'
_cell_length_a   7.03427326
_cell_length_b   9.50594916
_cell_length_c   6.36402137
_cell_angle_alpha   89.99999940
_cell_angle_beta   90.00000034
_cell_angle_gamma   89.99999994
_symmetry_Int_Tables_number   1
_chemical_formula_structural   DyScS3
_chemical_formula_sum   'Dy4 Sc4 S12'
_cell_volume   425.54584202
_cell_formula_units_Z   4
loop_
 _symmetry_equiv_pos_site_id
 _symmetry_equiv_pos_as_xyz
  1  'x, y, z'
loop_
 _atom_site_type_symbol
 _atom_site_label
 _atom_site_symmetry_multiplicity
 _atom_site_fract_x
 _atom_site_fract_y
 _atom_site_fract_z
 _atom_site_occupancy
  Dy  Dy0  1  0.89708753  0.75000010  0.95515774  1
  Dy  Dy1  1  0.39708764  0.74999989  0.54484213  1
  Dy  Dy2  1  0.60291236  0.24999997  0.45515778  1
  Dy  Dy3  1  0.10291236  0.24999999  0.04484224  1
  Sc  Sc4  1  -0.00000000  0.49999999  0.49999998  1
  Sc  Sc5  1  0.00000002  0.00000001  0.49999997  1
  Sc  Sc6  1  0.49999998  0.00000002  0.00000001  1
  Sc  Sc7  1  0.50000000  0.49999998  0.00000003  1
  S  S8  1  0.81378378  0.07253936  0.17621432  1
  S  S9  1  0.81378381  0.42746069  0.17621425  1
  S  S10  1  0.31378383  0.42746069  0.32378573  1
  S  S11  1  0.68621634  0.92746053  0.67621445  1
  S  S12  1  0.18621628  0.57253940  0.82378562  1
  S  S13  1  0.68621624  0.57253935  0.67621434  1
  S  S14  1  0.31378380  0.07253931  0.32378573  1
  S  S15  1  0.18621617  0.92746072  0.82378576  1
  S  S16  1  0.95113930  0.25000000  0.64914099  1
  S  S17  1  0.45113931  0.25000001  0.85085896  1
  S  S18  1  0.54886062  0.75000002  0.14914109  1
  S  S19  1  0.04886064  0.74999997  0.35085887  1
