# generated using pymatgen
data_DyZrS3
_symmetry_space_group_name_H-M   'P 1'
_cell_length_a   7.10957135
_cell_length_b   9.38485822
_cell_length_c   6.43083037
_cell_angle_alpha   89.99999992
_cell_angle_beta   90.00000553
_cell_angle_gamma   90.00000134
_symmetry_Int_Tables_number   1
_chemical_formula_structural   DyZrS3
_chemical_formula_sum   'Dy4 Zr4 S12'
_cell_volume   429.07991633
_cell_formula_units_Z   4
loop_
 _symmetry_equiv_pos_site_id
 _symmetry_equiv_pos_as_xyz
  1  'x, y, z'
loop_
 _atom_site_type_symbol
 _atom_site_label
 _atom_site_symmetry_multiplicity
 _atom_site_fract_x
 _atom_site_fract_y
 _atom_site_fract_z
 _atom_site_occupancy
  Dy  Dy0  1  0.86975551  0.72022440  0.94848172  1
  Dy  Dy1  1  0.39250212  0.76135160  0.52735482  1
  Dy  Dy2  1  0.63116409  0.27356762  0.45314197  1
  Dy  Dy3  1  0.11334768  0.22450108  0.06075753  1
  Zr  Zr4  1  0.00009283  0.51804039  0.47642304  1
  Zr  Zr5  1  -0.00823590  0.00297739  0.55215849  1
  Zr  Zr6  1  0.51023894  0.00229680  0.01784921  1
  Zr  Zr7  1  0.48113195  0.51207767  -0.00673998  1
  S  S8  1  0.79875322  0.08775107  0.18595210  1
  S  S9  1  0.81743314  0.42850217  0.16458700  1
  S  S10  1  0.31765066  0.41295530  0.31243415  1
  S  S11  1  0.68290393  0.91407374  0.70461097  1
  S  S12  1  0.19195409  0.57792185  0.77934444  1
  S  S13  1  0.67935094  0.56396840  0.64553480  1
  S  S14  1  0.30938927  0.04656849  0.35065594  1
  S  S15  1  0.18599961  0.92973399  0.84325344  1
  S  S16  1  0.95958355  0.26901729  0.64609065  1
  S  S17  1  0.46545474  0.25475444  0.83989597  1
  S  S18  1  0.55596411  0.75001464  0.15184553  1
  S  S19  1  0.04897395  0.76720505  0.31488019  1
