# generated using pymatgen
data_EuDyS3
_symmetry_space_group_name_H-M   'P 1'
_cell_length_a   7.34788147
_cell_length_b   9.83628615
_cell_length_c   6.88104257
_cell_angle_alpha   89.99999766
_cell_angle_beta   90.00000098
_cell_angle_gamma   90.00000100
_symmetry_Int_Tables_number   1
_chemical_formula_structural   EuDyS3
_chemical_formula_sum   'Eu4 Dy4 S12'
_cell_volume   497.33330179
_cell_formula_units_Z   4
loop_
 _symmetry_equiv_pos_site_id
 _symmetry_equiv_pos_as_xyz
  1  'x, y, z'
loop_
 _atom_site_type_symbol
 _atom_site_label
 _atom_site_symmetry_multiplicity
 _atom_site_fract_x
 _atom_site_fract_y
 _atom_site_fract_z
 _atom_site_occupancy
  Eu  Eu0  1  0.89578484  0.22059738  0.55620679  1
  Eu  Eu1  1  0.43126697  0.25301868  0.97575206  1
  Eu  Eu2  1  0.59979998  0.77718934  0.05928854  1
  Eu  Eu3  1  0.07440283  0.73814444  0.47099444  1
  Dy  Dy4  1  0.00270105  0.49935409  -0.01789817  1
  Dy  Dy5  1  0.00810638  0.00639992  -0.00086917  1
  Dy  Dy6  1  0.49405953  -0.00252092  0.49940295  1
  Dy  Dy7  1  0.49615976  0.50313453  0.49126015  1
  S  S8  1  0.80757222  0.59024833  0.29653168  1
  S  S9  1  0.81367164  0.93614329  0.31001879  1
  S  S10  1  0.34368359  0.98155439  0.14101473  1
  S  S11  1  0.69049118  0.41548201  0.79945952  1
  S  S12  1  0.14905083  0.01337871  0.64111591  1
  S  S13  1  0.68844949  0.06364295  0.81913234  1
  S  S14  1  0.31054004  0.59846111  0.16959024  1
  S  S15  1  0.18974088  0.40498614  0.67230976  1
  S  S16  1  0.95413157  0.74748610  0.83545896  1
  S  S17  1  0.46856076  0.75153112  0.65429111  1
  S  S18  1  0.54536514  0.25901835  0.35094079  1
  S  S19  1  0.02759376  0.25816989  0.15756421  1
