# generated using pymatgen
data_EuHfS3
_symmetry_space_group_name_H-M   'P 1'
_cell_length_a   7.14826798
_cell_length_b   9.71387520
_cell_length_c   6.55940761
_cell_angle_alpha   90.00000052
_cell_angle_beta   89.99999938
_cell_angle_gamma   89.99999969
_symmetry_Int_Tables_number   1
_chemical_formula_structural   EuHfS3
_chemical_formula_sum   'Eu4 Hf4 S12'
_cell_volume   455.46809938
_cell_formula_units_Z   4
loop_
 _symmetry_equiv_pos_site_id
 _symmetry_equiv_pos_as_xyz
  1  'x, y, z'
loop_
 _atom_site_type_symbol
 _atom_site_label
 _atom_site_symmetry_multiplicity
 _atom_site_fract_x
 _atom_site_fract_y
 _atom_site_fract_z
 _atom_site_occupancy
  Eu  Eu0  1  0.88907021  0.75480631  0.92679588  1
  Eu  Eu1  1  0.43833933  0.75251818  0.53093181  1
  Eu  Eu2  1  0.61451717  0.24930867  0.43621832  1
  Eu  Eu3  1  0.06097641  0.25916737  0.02668506  1
  Hf  Hf4  1  -0.00049509  0.50440472  0.52403787  1
  Hf  Hf5  1  -0.00081786  -0.01201486  0.49981143  1
  Hf  Hf6  1  0.49695302  0.00612571  -0.00047679  1
  Hf  Hf7  1  0.50496567  0.48737291  0.02982529  1
  S  S8  1  0.81640290  0.02816955  0.15191300  1
  S  S9  1  0.83367881  0.47462365  0.17788192  1
  S  S10  1  0.30118649  0.45263476  0.32526316  1
  S  S11  1  0.66500568  0.97251247  0.65523814  1
  S  S12  1  0.19957302  0.54273423  0.83645031  1
  S  S13  1  0.68823939  0.53086643  0.68296159  1
  S  S14  1  0.29158810  0.05342362  0.29677558  1
  S  S15  1  0.20071585  0.95411271  0.79658292  1
  S  S16  1  0.95874245  0.24590954  0.63701668  1
  S  S17  1  0.47968236  0.25092923  0.93957940  1
  S  S18  1  0.52874082  0.75239205  0.12389868  1
  S  S19  1  0.01931052  0.74536084  0.45647353  1
