# generated using pymatgen
data_EuHfS3
_symmetry_space_group_name_H-M   'P 1'
_cell_length_a   7.14826798
_cell_length_b   9.71387517
_cell_length_c   6.55940773
_cell_angle_alpha   90.00000075
_cell_angle_beta   90.00000022
_cell_angle_gamma   89.99999897
_symmetry_Int_Tables_number   1
_chemical_formula_structural   EuHfS3
_chemical_formula_sum   'Eu4 Hf4 S12'
_cell_volume   455.46810560
_cell_formula_units_Z   4
loop_
 _symmetry_equiv_pos_site_id
 _symmetry_equiv_pos_as_xyz
  1  'x, y, z'
loop_
 _atom_site_type_symbol
 _atom_site_label
 _atom_site_symmetry_multiplicity
 _atom_site_fract_x
 _atom_site_fract_y
 _atom_site_fract_z
 _atom_site_occupancy
  Eu  Eu0  1  0.91627082  0.74999994  0.96545712  1
  Eu  Eu1  1  0.41627077  0.74999992  0.53454297  1
  Eu  Eu2  1  0.58372912  0.25000006  0.46545691  1
  Eu  Eu3  1  0.08372915  0.25000011  0.03454293  1
  Hf  Hf4  1  -0.00000005  0.50000006  0.50000002  1
  Hf  Hf5  1  0.00000001  -0.00000007  0.50000001  1
  Hf  Hf6  1  0.49999984  -0.00000002  -0.00000012  1
  Hf  Hf7  1  0.49999996  0.50000002  -0.00000002  1
  S  S8  1  0.80556774  0.05345440  0.18226410  1
  S  S9  1  0.80556796  0.44654551  0.18226412  1
  S  S10  1  0.30556792  0.44654552  0.31773593  1
  S  S11  1  0.69443219  0.94654557  0.68226403  1
  S  S12  1  0.19443195  0.55345451  0.81773594  1
  S  S13  1  0.69443203  0.55345451  0.68226402  1
  S  S14  1  0.30556779  0.05345443  0.31773594  1
  S  S15  1  0.19443215  0.94654550  0.81773606  1
  S  S16  1  0.97564722  0.24999998  0.60732263  1
  S  S17  1  0.47564716  0.25000002  0.89267746  1
  S  S18  1  0.52435320  0.74999997  0.10732243  1
  S  S19  1  0.02435308  0.75000006  0.39267752  1
