# generated using pymatgen
data_EuTmS3
_symmetry_space_group_name_H-M   'P 1'
_cell_length_a   7.27818662
_cell_length_b   9.88196308
_cell_length_c   6.74297250
_cell_angle_alpha   90.00000013
_cell_angle_beta   90.00000040
_cell_angle_gamma   89.99999965
_symmetry_Int_Tables_number   1
_chemical_formula_structural   EuTmS3
_chemical_formula_sum   'Eu4 Tm4 S12'
_cell_volume   484.97327030
_cell_formula_units_Z   4
loop_
 _symmetry_equiv_pos_site_id
 _symmetry_equiv_pos_as_xyz
  1  'x, y, z'
loop_
 _atom_site_type_symbol
 _atom_site_label
 _atom_site_symmetry_multiplicity
 _atom_site_fract_x
 _atom_site_fract_y
 _atom_site_fract_z
 _atom_site_occupancy
  Eu  Eu0  1  0.90990881  0.24999997  0.96344413  1
  Eu  Eu1  1  0.40990876  0.25000000  0.53655583  1
  Eu  Eu2  1  0.59009105  0.74999996  0.46344406  1
  Eu  Eu3  1  0.09009103  0.75000003  0.03655590  1
  Tm  Tm4  1  -0.00000001  0.50000004  0.50000003  1
  Tm  Tm5  1  0.00000000  -0.00000001  0.50000003  1
  Tm  Tm6  1  0.50000001  -0.00000003  0.00000001  1
  Tm  Tm7  1  0.50000001  0.50000002  -0.00000004  1
  S  S8  1  0.80977278  0.57355725  0.18133648  1
  S  S9  1  0.80977280  0.92644272  0.18133641  1
  S  S10  1  0.30977281  0.92644270  0.31866358  1
  S  S11  1  0.69022720  0.42644268  0.68133638  1
  S  S12  1  0.19022710  0.07355735  0.81866365  1
  S  S13  1  0.69022718  0.07355732  0.68133636  1
  S  S14  1  0.30977285  0.57355733  0.31866362  1
  S  S15  1  0.19022717  0.42644269  0.81866357  1
  S  S16  1  0.94687132  0.74999998  0.64523495  1
  S  S17  1  0.44687143  0.75000000  0.85476504  1
  S  S18  1  0.55312884  0.25000000  0.14523485  1
  S  S19  1  0.05312887  0.25000000  0.35476516  1
