# generated using pymatgen
data_EuTmS3
_symmetry_space_group_name_H-M   'P 1'
_cell_length_a   7.27818658
_cell_length_b   9.88196300
_cell_length_c   6.74297246
_cell_angle_alpha   90.00000000
_cell_angle_beta   89.99999946
_cell_angle_gamma   89.99999987
_symmetry_Int_Tables_number   1
_chemical_formula_structural   EuTmS3
_chemical_formula_sum   'Eu4 Tm4 S12'
_cell_volume   484.97326061
_cell_formula_units_Z   4
loop_
 _symmetry_equiv_pos_site_id
 _symmetry_equiv_pos_as_xyz
  1  'x, y, z'
loop_
 _atom_site_type_symbol
 _atom_site_label
 _atom_site_symmetry_multiplicity
 _atom_site_fract_x
 _atom_site_fract_y
 _atom_site_fract_z
 _atom_site_occupancy
  Eu  Eu0  1  0.88582939  0.26758466  0.94929550  1
  Eu  Eu1  1  0.38240370  0.22686232  0.53706077  1
  Eu  Eu2  1  0.61807375  0.72681690  0.46199499  1
  Eu  Eu3  1  0.11447965  0.76758617  0.05154093  1
  Tm  Tm4  1  0.01704149  0.49634360  0.47171101  1
  Tm  Tm5  1  -0.01709135  -0.00394401  0.52871081  1
  Tm  Tm6  1  0.51929527  0.01491634  0.03382368  1
  Tm  Tm7  1  0.48021275  0.51551520  -0.03385829  1
  S  S8  1  0.79023246  0.57004181  0.16293116  1
  S  S9  1  0.80099124  0.91317770  0.21092034  1
  S  S10  1  0.29611114  0.92319833  0.34719990  1
  S  S11  1  0.70348979  0.42346674  0.65280220  1
  S  S12  1  0.20924453  0.06963717  0.83710897  1
  S  S13  1  0.69939454  0.06531849  0.70905434  1
  S  S14  1  0.30125816  0.56474257  0.29072857  1
  S  S15  1  0.19936560  0.41299526  0.78849053  1
  S  S16  1  0.94231302  0.73111554  0.65285262  1
  S  S17  1  0.44710376  0.76384248  0.87559895  1
  S  S18  1  0.55197628  0.26393813  0.12281631  1
  S  S19  1  0.05764376  0.23107220  0.34796605  1
