# generated using pymatgen
data_EuUS3
_symmetry_space_group_name_H-M   'P 1'
_cell_length_a   7.44243463
_cell_length_b   10.15038434
_cell_length_c   6.74223502
_cell_angle_alpha   90.00000035
_cell_angle_beta   90.00000079
_cell_angle_gamma   90.00000153
_symmetry_Int_Tables_number   1
_chemical_formula_structural   EuUS3
_chemical_formula_sum   'Eu4 U4 S12'
_cell_volume   509.33251606
_cell_formula_units_Z   4
loop_
 _symmetry_equiv_pos_site_id
 _symmetry_equiv_pos_as_xyz
  1  'x, y, z'
loop_
 _atom_site_type_symbol
 _atom_site_label
 _atom_site_symmetry_multiplicity
 _atom_site_fract_x
 _atom_site_fract_y
 _atom_site_fract_z
 _atom_site_occupancy
  Eu  Eu0  1  0.93729508  0.24975504  0.54699324  1
  Eu  Eu1  1  0.43734074  0.24987286  0.95309300  1
  Eu  Eu2  1  0.56273356  0.75005922  0.04691931  1
  Eu  Eu3  1  0.06264350  0.75022293  0.45305001  1
  U  U4  1  0.00002289  0.49998562  -0.00003384  1
  U  U5  1  0.00006757  -0.00003031  0.00005462  1
  U  U6  1  0.49995318  0.00002243  0.49995148  1
  U  U7  1  0.49993068  0.50002688  0.50000483  1
  S  S8  1  0.81783086  0.55458784  0.32333578  1
  S  S9  1  0.82110222  0.94678218  0.32032334  1
  S  S10  1  0.32119396  0.94670150  0.17969154  1
  S  S11  1  0.68216322  0.44550277  0.82331594  1
  S  S12  1  0.17883310  0.05337101  0.67974971  1
  S  S13  1  0.67881567  0.05332737  0.82031072  1
  S  S14  1  0.31798444  0.55441738  0.17668190  1
  S  S15  1  0.18212387  0.44565553  0.67655635  1
  S  S16  1  0.94549476  0.75032402  0.93070009  1
  S  S17  1  0.44550418  0.75035278  0.56918638  1
  S  S18  1  0.55454353  0.24971197  0.43080796  1
  S  S19  1  0.05453987  0.24965778  0.06924656  1
