# generated using pymatgen
data_EuUSe3
_symmetry_space_group_name_H-M   'P 1'
_cell_length_a   7.66815183
_cell_length_b   10.32283321
_cell_length_c   7.34852453
_cell_angle_alpha   90.00000007
_cell_angle_beta   90.00000035
_cell_angle_gamma   89.99999955
_symmetry_Int_Tables_number   1
_chemical_formula_structural   EuUSe3
_chemical_formula_sum   'Eu4 U4 Se12'
_cell_volume   581.68754079
_cell_formula_units_Z   4
loop_
 _symmetry_equiv_pos_site_id
 _symmetry_equiv_pos_as_xyz
  1  'x, y, z'
loop_
 _atom_site_type_symbol
 _atom_site_label
 _atom_site_symmetry_multiplicity
 _atom_site_fract_x
 _atom_site_fract_y
 _atom_site_fract_z
 _atom_site_occupancy
  Eu  Eu0  1  0.95707867  0.24309744  0.02703949  1
  Eu  Eu1  1  0.45565895  0.24179988  0.47031846  1
  Eu  Eu2  1  0.54446243  0.74195396  0.52982058  1
  Eu  Eu3  1  0.04295126  0.74308698  0.97272286  1
  U  U4  1  0.02304325  0.51272649  0.50169977  1
  U  U5  1  -0.02301917  0.01272429  0.49817540  1
  U  U6  1  0.47720615  0.01257984  0.00004620  1
  U  U7  1  0.52270767  0.51265209  0.00008520  1
  Se  Se8  1  0.83303134  0.53463831  0.81644533  1
  Se  Se9  1  0.79851984  0.93510987  0.81536118  1
  Se  Se10  1  0.30069255  0.93674951  0.68209988  1
  Se  Se11  1  0.69918056  0.43663176  0.31795050  1
  Se  Se12  1  0.16718283  0.03492915  0.18370102  1
  Se  Se13  1  0.66555576  0.03447832  0.31569745  1
  Se  Se14  1  0.33448730  0.53448253  0.68438827  1
  Se  Se15  1  0.20145883  0.43498110  0.18470737  1
  Se  Se16  1  0.89278503  0.75587968  0.37916595  1
  Se  Se17  1  0.39216887  0.75568884  0.12155758  1
  Se  Se18  1  0.60769370  0.25564174  0.87844531  1
  Se  Se19  1  0.10713939  0.25587245  0.62065002  1
