# generated using pymatgen
data_EuUS3
_symmetry_space_group_name_H-M   'P 1'
_cell_length_a   7.44243462
_cell_length_b   10.15038426
_cell_length_c   6.74223494
_cell_angle_alpha   90.00000028
_cell_angle_beta   90.00000093
_cell_angle_gamma   90.00000109
_symmetry_Int_Tables_number   1
_chemical_formula_structural   EuUS3
_chemical_formula_sum   'Eu4 U4 S12'
_cell_volume   509.33250593
_cell_formula_units_Z   4
loop_
 _symmetry_equiv_pos_site_id
 _symmetry_equiv_pos_as_xyz
  1  'x, y, z'
loop_
 _atom_site_type_symbol
 _atom_site_label
 _atom_site_symmetry_multiplicity
 _atom_site_fract_x
 _atom_site_fract_y
 _atom_site_fract_z
 _atom_site_occupancy
  Eu  Eu0  1  0.91414901  0.25000002  0.53930625  1
  Eu  Eu1  1  0.41414896  0.25000002  0.96069367  1
  Eu  Eu2  1  0.58585103  0.75000003  0.03930615  1
  Eu  Eu3  1  0.08585111  0.74999999  0.46069366  1
  U  U4  1  -0.00000003  0.49999997  0.00000004  1
  U  U5  1  0.00000003  0.00000002  0.00000003  1
  U  U6  1  0.50000001  -0.00000005  0.50000000  1
  U  U7  1  0.49999996  0.50000006  0.50000003  1
  S  S8  1  0.80502026  0.57028893  0.32308989  1
  S  S9  1  0.80502033  0.92971105  0.32308992  1
  S  S10  1  0.30502029  0.92971104  0.17691016  1
  S  S11  1  0.69497967  0.42971105  0.82308991  1
  S  S12  1  0.19497978  0.07028895  0.67691010  1
  S  S13  1  0.69497968  0.07028897  0.82308990  1
  S  S14  1  0.30502029  0.57028889  0.17691009  1
  S  S15  1  0.19497967  0.42971105  0.67691009  1
  S  S16  1  0.94546574  0.74999999  0.86505563  1
  S  S17  1  0.44546580  0.74999998  0.63494445  1
  S  S18  1  0.55453424  0.25000003  0.36505561  1
  S  S19  1  0.05453418  0.25000000  0.13494442  1
