# generated using pymatgen
data_EuUSe3
_symmetry_space_group_name_H-M   'P 1'
_cell_length_a   7.66815183
_cell_length_b   10.32283344
_cell_length_c   7.34852465
_cell_angle_alpha   90.00000075
_cell_angle_beta   90.00000124
_cell_angle_gamma   89.99999899
_symmetry_Int_Tables_number   1
_chemical_formula_structural   EuUSe3
_chemical_formula_sum   'Eu4 U4 Se12'
_cell_volume   581.68756325
_cell_formula_units_Z   4
loop_
 _symmetry_equiv_pos_site_id
 _symmetry_equiv_pos_as_xyz
  1  'x, y, z'
loop_
 _atom_site_type_symbol
 _atom_site_label
 _atom_site_symmetry_multiplicity
 _atom_site_fract_x
 _atom_site_fract_y
 _atom_site_fract_z
 _atom_site_occupancy
  Eu  Eu0  1  0.91165081  0.24999996  0.03627996  1
  Eu  Eu1  1  0.41165086  0.24999999  0.46372007  1
  Eu  Eu2  1  0.58834908  0.75000001  0.53627993  1
  Eu  Eu3  1  0.08834912  0.75000002  0.96372010  1
  U  U4  1  0.00000001  0.50000000  0.50000009  1
  U  U5  1  0.00000003  0.00000012  0.50000001  1
  U  U6  1  0.49999996  -0.00000024  0.00000015  1
  U  U7  1  0.50000005  0.50000009  0.00000007  1
  Se  Se8  1  0.80818057  0.56991319  0.81124940  1
  Se  Se9  1  0.80818037  0.93008689  0.81124953  1
  Se  Se10  1  0.30818062  0.93008682  0.68875066  1
  Se  Se11  1  0.69181944  0.43008688  0.31124924  1
  Se  Se12  1  0.19181959  0.06991312  0.18875052  1
  Se  Se13  1  0.69181936  0.06991321  0.31124931  1
  Se  Se14  1  0.30818050  0.56991311  0.68875067  1
  Se  Se15  1  0.19181938  0.43008680  0.18875062  1
  Se  Se16  1  0.94398617  0.75000006  0.35223399  1
  Se  Se17  1  0.44398614  0.75000000  0.14776595  1
  Se  Se18  1  0.55601400  0.25000003  0.85223385  1
  Se  Se19  1  0.05601394  0.24999994  0.64776586  1
