# generated using pymatgen
data_EuYS3
_symmetry_space_group_name_H-M   'P 1'
_cell_length_a   7.33437989
_cell_length_b   9.81313999
_cell_length_c   6.91120432
_cell_angle_alpha   89.99999913
_cell_angle_beta   90.00000071
_cell_angle_gamma   89.99999744
_symmetry_Int_Tables_number   1
_chemical_formula_structural   EuYS3
_chemical_formula_sum   'Eu4 Y4 S12'
_cell_volume   497.42215861
_cell_formula_units_Z   4
loop_
 _symmetry_equiv_pos_site_id
 _symmetry_equiv_pos_as_xyz
  1  'x, y, z'
loop_
 _atom_site_type_symbol
 _atom_site_label
 _atom_site_symmetry_multiplicity
 _atom_site_fract_x
 _atom_site_fract_y
 _atom_site_fract_z
 _atom_site_occupancy
  Eu  Eu0  1  0.91422592  0.75000000  0.96236319  1
  Eu  Eu1  1  0.41422609  0.75000005  0.53763696  1
  Eu  Eu2  1  0.58577365  0.25000010  0.46236293  1
  Eu  Eu3  1  0.08577401  0.25000003  0.03763697  1
  Y  Y4  1  -0.00000013  0.50000004  0.49999999  1
  Y  Y5  1  -0.00000009  -0.00000003  0.49999995  1
  Y  Y6  1  0.49999998  -0.00000002  -0.00000003  1
  Y  Y7  1  0.50000005  0.49999995  -0.00000005  1
  S  S8  1  0.80827381  0.07557870  0.18579523  1
  S  S9  1  0.80827370  0.42442130  0.18579498  1
  S  S10  1  0.30827385  0.42442120  0.31420503  1
  S  S11  1  0.69172605  0.92442120  0.68579506  1
  S  S12  1  0.19172628  0.57557879  0.81420509  1
  S  S13  1  0.69172613  0.57557875  0.68579489  1
  S  S14  1  0.30827377  0.07557871  0.31420475  1
  S  S15  1  0.19172631  0.92442124  0.81420496  1
  S  S16  1  0.93552952  0.25000003  0.65738656  1
  S  S17  1  0.43552929  0.25000002  0.84261339  1
  S  S18  1  0.56447090  0.74999994  0.15738647  1
  S  S19  1  0.06447092  0.75000002  0.34261365  1
