# generated using pymatgen
data_EuYS3
_symmetry_space_group_name_H-M   'P 1'
_cell_length_a   7.33437979
_cell_length_b   9.81313979
_cell_length_c   6.91120433
_cell_angle_alpha   90.00000024
_cell_angle_beta   90.00000034
_cell_angle_gamma   90.00000045
_symmetry_Int_Tables_number   1
_chemical_formula_structural   EuYS3
_chemical_formula_sum   'Eu4 Y4 S12'
_cell_volume   497.42214210
_cell_formula_units_Z   4
loop_
 _symmetry_equiv_pos_site_id
 _symmetry_equiv_pos_as_xyz
  1  'x, y, z'
loop_
 _atom_site_type_symbol
 _atom_site_label
 _atom_site_symmetry_multiplicity
 _atom_site_fract_x
 _atom_site_fract_y
 _atom_site_fract_z
 _atom_site_occupancy
  Eu  Eu0  1  0.91830800  0.75613078  0.96764060  1
  Eu  Eu1  1  0.41894314  0.75611419  0.53360908  1
  Eu  Eu2  1  0.58360732  0.25198877  0.46795547  1
  Eu  Eu3  1  0.08308060  0.25314691  0.03047183  1
  Y  Y4  1  0.02250084  0.48352024  0.51156309  1
  Y  Y5  1  -0.02661843  -0.01938714  0.48530577  1
  Y  Y6  1  0.47261991  -0.02003469  0.01413409  1
  Y  Y7  1  0.52370516  0.48232284  -0.01227130  1
  S  S8  1  0.78361701  0.09087124  0.18508224  1
  S  S9  1  0.82194995  0.44907704  0.19295389  1
  S  S10  1  0.32394822  0.45128839  0.30812250  1
  S  S11  1  0.66724581  0.95255541  0.68453218  1
  S  S12  1  0.22375477  0.59541290  0.81531719  1
  S  S13  1  0.72265103  0.59523826  0.68530902  1
  S  S14  1  0.28013085  0.09222267  0.31643628  1
  S  S15  1  0.16568162  0.95258845  0.81717547  1
  S  S16  1  0.90281206  0.23538189  0.63893736  1
  S  S17  1  0.40470243  0.23450613  0.86320065  1
  S  S18  1  0.60291480  0.73613748  0.14489026  1
  S  S19  1  0.10352538  0.73637798  0.35309183  1
