# generated using pymatgen
data_EuZrS3
_symmetry_space_group_name_H-M   'P 1'
_cell_length_a   7.24062396
_cell_length_b   9.71973726
_cell_length_c   6.57808835
_cell_angle_alpha   89.99999883
_cell_angle_beta   89.99999885
_cell_angle_gamma   89.99999822
_symmetry_Int_Tables_number   1
_chemical_formula_structural   EuZrS3
_chemical_formula_sum   'Eu4 Zr4 S12'
_cell_volume   462.94587741
_cell_formula_units_Z   4
loop_
 _symmetry_equiv_pos_site_id
 _symmetry_equiv_pos_as_xyz
  1  'x, y, z'
loop_
 _atom_site_type_symbol
 _atom_site_label
 _atom_site_symmetry_multiplicity
 _atom_site_fract_x
 _atom_site_fract_y
 _atom_site_fract_z
 _atom_site_occupancy
  Eu  Eu0  1  0.90754126  0.75000002  0.03892081  1
  Eu  Eu1  1  0.40754127  0.74999996  0.46107948  1
  Eu  Eu2  1  0.59245889  0.24999999  0.53892086  1
  Eu  Eu3  1  0.09245854  0.25000001  0.96107940  1
  Zr  Zr4  1  -0.00000000  0.50000006  0.50000007  1
  Zr  Zr5  1  0.00000001  -0.00000001  0.50000010  1
  Zr  Zr6  1  0.49999994  0.00000010  0.00000011  1
  Zr  Zr7  1  0.49999997  0.49999988  0.00000006  1
  S  S8  1  0.80735367  0.05705505  0.82185301  1
  S  S9  1  0.80735368  0.44294496  0.82185299  1
  S  S10  1  0.30735354  0.44294498  0.67814702  1
  S  S11  1  0.69264634  0.94294501  0.32185288  1
  S  S12  1  0.19264637  0.55705493  0.17814709  1
  S  S13  1  0.69264634  0.55705500  0.32185298  1
  S  S14  1  0.30735361  0.05705505  0.67814708  1
  S  S15  1  0.19264631  0.94294496  0.17814701  1
  S  S16  1  0.96548993  0.24999999  0.38009197  1
  S  S17  1  0.46548991  0.25000004  0.11990744  1
  S  S18  1  0.53451016  0.74999999  0.88009208  1
  S  S19  1  0.03451025  0.75000004  0.61990757  1
