# generated using pymatgen
data_GdScS3
_symmetry_space_group_name_H-M   'P 1'
_cell_length_a   7.04792311
_cell_length_b   6.40082943
_cell_length_c   9.56355422
_cell_angle_alpha   90.00000066
_cell_angle_beta   89.99999972
_cell_angle_gamma   89.99999530
_symmetry_Int_Tables_number   1
_chemical_formula_structural   GdScS3
_chemical_formula_sum   'Gd4 Sc4 S12'
_cell_volume   431.43635332
_cell_formula_units_Z   4
loop_
 _symmetry_equiv_pos_site_id
 _symmetry_equiv_pos_as_xyz
  1  'x, y, z'
loop_
 _atom_site_type_symbol
 _atom_site_label
 _atom_site_symmetry_multiplicity
 _atom_site_fract_x
 _atom_site_fract_y
 _atom_site_fract_z
 _atom_site_occupancy
  Gd  Gd0  1  0.60276044  0.45301553  0.49158681  1
  Gd  Gd1  1  0.89723981  0.95301583  0.99158686  1
  Gd  Gd2  1  0.39723975  0.54698438  0.99158667  1
  Gd  Gd3  1  0.10276029  0.04698428  0.49158691  1
  Sc  Sc4  1  0.50189291  0.99836520  0.73998734  1
  Sc  Sc5  1  0.99810715  0.49836521  0.23998724  1
  Sc  Sc6  1  0.49810715  0.00163480  0.23998725  1
  Sc  Sc7  1  0.00189287  0.50163477  0.73998730  1
  S  S8  1  0.54719393  0.14771503  0.99062680  1
  S  S9  1  0.95280623  0.64771500  0.49062675  1
  S  S10  1  0.45280610  0.85228495  0.49062677  1
  S  S11  1  0.04719374  0.35228514  0.99062681  1
  S  S12  1  0.68717001  0.67751115  0.16966933  1
  S  S13  1  0.81282985  0.17751116  0.66966923  1
  S  S14  1  0.31282979  0.32248869  0.66966922  1
  S  S15  1  0.18717007  0.82248893  0.16966933  1
  S  S16  1  0.68886763  0.67687225  0.81352963  1
  S  S17  1  0.81113218  0.17687239  0.31352998  1
  S  S18  1  0.31113227  0.32312770  0.31352978  1
  S  S19  1  0.18886783  0.82312759  0.81353000  1
