# generated using pymatgen
data_GdZrS3
_symmetry_space_group_name_H-M   'P 1'
_cell_length_a   7.17793029
_cell_length_b   9.44715135
_cell_length_c   6.41056259
_cell_angle_alpha   90.00000001
_cell_angle_beta   90.00000027
_cell_angle_gamma   89.99999906
_symmetry_Int_Tables_number   1
_chemical_formula_structural   GdZrS3
_chemical_formula_sum   'Gd4 Zr4 S12'
_cell_volume   434.70662005
_cell_formula_units_Z   4
loop_
 _symmetry_equiv_pos_site_id
 _symmetry_equiv_pos_as_xyz
  1  'x, y, z'
loop_
 _atom_site_type_symbol
 _atom_site_label
 _atom_site_symmetry_multiplicity
 _atom_site_fract_x
 _atom_site_fract_y
 _atom_site_fract_z
 _atom_site_occupancy
  Gd  Gd0  1  0.88906183  0.75000005  0.94582406  1
  Gd  Gd1  1  0.38906184  0.75000005  0.55417589  1
  Gd  Gd2  1  0.61093818  0.25000003  0.44582397  1
  Gd  Gd3  1  0.11093813  0.25000002  0.05417588  1
  Zr  Zr4  1  -0.00000000  0.50000000  0.50000005  1
  Zr  Zr5  1  -0.00000012  -0.00000000  0.49999994  1
  Zr  Zr6  1  0.49999989  -0.00000002  0.00000003  1
  Zr  Zr7  1  0.50000008  0.49999996  0.00000006  1
  S  S8  1  0.81282290  0.07096714  0.16892338  1
  S  S9  1  0.81282279  0.42903276  0.16892342  1
  S  S10  1  0.31282289  0.42903294  0.33107683  1
  S  S11  1  0.68717730  0.92903283  0.66892343  1
  S  S12  1  0.18717702  0.57096706  0.83107679  1
  S  S13  1  0.68717714  0.57096718  0.66892315  1
  S  S14  1  0.31282296  0.07096710  0.33107677  1
  S  S15  1  0.18717714  0.92903288  0.83107662  1
  S  S16  1  0.95466911  0.25000003  0.65621121  1
  S  S17  1  0.45466914  0.25000003  0.84378866  1
  S  S18  1  0.54533086  0.74999999  0.15621114  1
  S  S19  1  0.04533093  0.74999997  0.34378873  1
