# generated using pymatgen
data_HfCuSe3
_symmetry_space_group_name_H-M   'P 1'
_cell_length_a   7.00425412
_cell_length_b   8.73963098
_cell_length_c   6.41903204
_cell_angle_alpha   90.00004623
_cell_angle_beta   89.99930730
_cell_angle_gamma   90.00036852
_symmetry_Int_Tables_number   1
_chemical_formula_structural   HfCuSe3
_chemical_formula_sum   'Hf4 Cu4 Se12'
_cell_volume   392.93845482
_cell_formula_units_Z   4
loop_
 _symmetry_equiv_pos_site_id
 _symmetry_equiv_pos_as_xyz
  1  'x, y, z'
loop_
 _atom_site_type_symbol
 _atom_site_label
 _atom_site_symmetry_multiplicity
 _atom_site_fract_x
 _atom_site_fract_y
 _atom_site_fract_z
 _atom_site_occupancy
  Hf  Hf0  1  0.84533955  0.26913897  0.41270560  1
  Hf  Hf1  1  0.34207884  0.24834301  0.03518363  1
  Hf  Hf2  1  0.64382715  0.75347767  0.96250605  1
  Hf  Hf3  1  0.16345142  0.71010767  0.56256125  1
  Cu  Cu4  1  -0.04617122  0.48521508  -0.00283333  1
  Cu  Cu5  1  -0.02030027  0.01586858  0.01821089  1
  Cu  Cu6  1  0.56442129  -0.01522655  0.55281185  1
  Cu  Cu7  1  0.51785291  0.51645774  0.52056412  1
  Se  Se8  1  0.82334899  0.57949874  0.63994605  1
  Se  Se9  1  0.88337873  0.94968058  0.64838726  1
  Se  Se10  1  0.33918994  0.92161317  0.85368524  1
  Se  Se11  1  0.65105260  0.44910453  0.16590310  1
  Se  Se12  1  0.15874747  0.10284648  0.31556552  1
  Se  Se13  1  0.66928526  0.06601220  0.17000712  1
  Se  Se14  1  0.32409275  0.55355028  0.85301231  1
  Se  Se15  1  0.17903567  0.42398880  0.35733332  1
  Se  Se16  1  0.95374827  0.74777217  0.18272341  1
  Se  Se17  1  0.46304711  0.75123185  0.32741874  1
  Se  Se18  1  0.54205852  0.23717144  0.66592768  1
  Se  Se19  1  0.01486589  0.25758436  0.81281600  1
