# generated using pymatgen
data_HfCuS3
_symmetry_space_group_name_H-M   'P 1'
_cell_length_a   6.35150294
_cell_length_b   9.53078497
_cell_length_c   6.31169591
_cell_angle_alpha   89.99981001
_cell_angle_beta   90.00010841
_cell_angle_gamma   89.99984626
_symmetry_Int_Tables_number   1
_chemical_formula_structural   HfCuS3
_chemical_formula_sum   'Hf4 Cu4 S12'
_cell_volume   382.07730504
_cell_formula_units_Z   4
loop_
 _symmetry_equiv_pos_site_id
 _symmetry_equiv_pos_as_xyz
  1  'x, y, z'
loop_
 _atom_site_type_symbol
 _atom_site_label
 _atom_site_symmetry_multiplicity
 _atom_site_fract_x
 _atom_site_fract_y
 _atom_site_fract_z
 _atom_site_occupancy
  Hf  Hf0  1  -0.01995121  0.48449544  0.53356472  1
  Hf  Hf1  1  -0.00694049  -0.01441704  0.48278652  1
  Hf  Hf2  1  0.51807548  -0.01931193  -0.01883844  1
  Hf  Hf3  1  0.49399469  0.47910073  0.00015302  1
  Cu  Cu4  1  0.91448008  0.34611769  -0.05633009  1
  Cu  Cu5  1  0.39962717  0.32494882  0.60455671  1
  Cu  Cu6  1  0.60026161  0.84002481  0.35421048  1
  Cu  Cu7  1  0.10025324  0.79152447  1.05781604  1
  S  S8  1  0.85705265  0.57846249  0.86247253  1
  S  S9  1  0.85872281  0.88938767  0.83651504  1
  S  S10  1  0.36833376  0.90802556  0.63982659  1
  S  S11  1  0.63960470  0.42114524  0.37349115  1
  S  S12  1  0.15782700  0.03667695  0.14697822  1
  S  S13  1  0.66551799  0.08182446  0.33385301  1
  S  S14  1  0.34657512  0.56085121  0.64997508  1
  S  S15  1  0.16292911  0.38629511  0.19234913  1
  S  S16  1  0.91664966  0.74127307  0.37662426  1
  S  S17  1  0.41837037  0.71900093  0.11637129  1
  S  S18  1  0.59268529  0.23597372  0.87883152  1
  S  S19  1  0.06585077  0.23149970  0.67494140  1
