# generated using pymatgen
data_LaScS3
_symmetry_space_group_name_H-M   'P 1'
_cell_length_a   7.23184114
_cell_length_b   9.63948909
_cell_length_c   6.60503680
_cell_angle_alpha   89.99999997
_cell_angle_beta   89.99999973
_cell_angle_gamma   90.00000005
_symmetry_Int_Tables_number   1
_chemical_formula_structural   LaScS3
_chemical_formula_sum   'La4 Sc4 S12'
_cell_volume   460.44539627
_cell_formula_units_Z   4
loop_
 _symmetry_equiv_pos_site_id
 _symmetry_equiv_pos_as_xyz
  1  'x, y, z'
loop_
 _atom_site_type_symbol
 _atom_site_label
 _atom_site_symmetry_multiplicity
 _atom_site_fract_x
 _atom_site_fract_y
 _atom_site_fract_z
 _atom_site_occupancy
  La  La0  1  0.90381121  0.24999999  0.96510447  1
  La  La1  1  0.40381140  0.25000000  0.53489558  1
  La  La2  1  0.59618869  0.74999998  0.46510442  1
  La  La3  1  0.09618864  0.74999997  0.03489559  1
  Sc  Sc4  1  0.00000001  0.49999998  0.49999998  1
  Sc  Sc5  1  0.00000002  -0.00000001  0.49999994  1
  Sc  Sc6  1  0.49999997  -0.00000001  -0.00000005  1
  Sc  Sc7  1  0.50000000  0.50000001  -0.00000003  1
  S  S8  1  0.81035070  0.55920337  0.18394061  1
  S  S9  1  0.81035070  0.94079668  0.18394069  1
  S  S10  1  0.31035068  0.94079669  0.31605932  1
  S  S11  1  0.68964931  0.44079667  0.68394066  1
  S  S12  1  0.18964933  0.05920335  0.81605937  1
  S  S13  1  0.68964929  0.05920331  0.68394071  1
  S  S14  1  0.31035069  0.55920335  0.31605938  1
  S  S15  1  0.18964934  0.44079665  0.81605939  1
  S  S16  1  0.96606939  0.75000003  0.62684547  1
  S  S17  1  0.46606941  0.75000002  0.87315454  1
  S  S18  1  0.53393070  0.24999999  0.12684545  1
  S  S19  1  0.03393051  0.24999999  0.37315451  1
