# generated using pymatgen
data_LaTbSe3
_symmetry_space_group_name_H-M   'P 1'
_cell_length_a   7.80584729
_cell_length_b   10.17975879
_cell_length_c   7.27088318
_cell_angle_alpha   89.99999913
_cell_angle_beta   89.99999805
_cell_angle_gamma   89.99999726
_symmetry_Int_Tables_number   1
_chemical_formula_structural   LaTbSe3
_chemical_formula_sum   'La4 Tb4 Se12'
_cell_volume   577.75632025
_cell_formula_units_Z   4
loop_
 _symmetry_equiv_pos_site_id
 _symmetry_equiv_pos_as_xyz
  1  'x, y, z'
loop_
 _atom_site_type_symbol
 _atom_site_label
 _atom_site_symmetry_multiplicity
 _atom_site_fract_x
 _atom_site_fract_y
 _atom_site_fract_z
 _atom_site_occupancy
  La  La0  1  0.87767964  0.26902264  0.43520236  1
  La  La1  1  0.37785450  0.23091806  0.06505778  1
  La  La2  1  0.62193763  0.73100894  0.93514502  1
  La  La3  1  0.12222377  0.76897999  0.56446715  1
  Tb  Tb4  1  0.00922044  0.49912284  -0.04181444  1
  Tb  Tb5  1  -0.00929131  -0.00090301  0.04232196  1
  Tb  Tb6  1  0.50945000  0.00081531  0.54233986  1
  Tb  Tb7  1  0.49050638  0.50094343  0.45730225  1
  Se  Se8  1  0.80169989  0.57294886  0.65595663  1
  Se  Se9  1  0.82463188  0.91426389  0.70059572  1
  Se  Se10  1  0.30165901  0.92711059  0.84406630  1
  Se  Se11  1  0.69794906  0.42696132  0.15569757  1
  Se  Se12  1  0.19807617  0.07304640  0.34426970  1
  Se  Se13  1  0.67589801  0.08574814  0.20074622  1
  Se  Se14  1  0.32439031  0.58593869  0.79928466  1
  Se  Se15  1  0.17572293  0.41429849  0.29933208  1
  Se  Se16  1  0.94905387  0.73896089  0.17365160  1
  Se  Se17  1  0.44940535  0.76089911  0.32658621  1
  Se  Se18  1  0.55100415  0.26088742  0.67380954  1
  Se  Se19  1  0.05127573  0.23910304  0.82592764  1
