# generated using pymatgen
data_LaTbS3
_symmetry_space_group_name_H-M   'P 1'
_cell_length_a   7.43892009
_cell_length_b   9.90961331
_cell_length_c   6.96540339
_cell_angle_alpha   89.99999975
_cell_angle_beta   90.00000475
_cell_angle_gamma   89.99999972
_symmetry_Int_Tables_number   1
_chemical_formula_structural   LaTbS3
_chemical_formula_sum   'La4 Tb4 S12'
_cell_volume   513.46739902
_cell_formula_units_Z   4
loop_
 _symmetry_equiv_pos_site_id
 _symmetry_equiv_pos_as_xyz
  1  'x, y, z'
loop_
 _atom_site_type_symbol
 _atom_site_label
 _atom_site_symmetry_multiplicity
 _atom_site_fract_x
 _atom_site_fract_y
 _atom_site_fract_z
 _atom_site_occupancy
  La  La0  1  0.91235367  0.25000008  0.46373353  1
  La  La1  1  0.41235352  0.25000005  0.03626654  1
  La  La2  1  0.58764679  0.74999994  0.96373378  1
  La  La3  1  0.08764588  0.75000007  0.53626700  1
  Tb  Tb4  1  0.00000005  0.50000004  0.00000005  1
  Tb  Tb5  1  -0.00000002  0.00000002  0.00000007  1
  Tb  Tb6  1  0.49999997  -0.00000001  0.49999997  1
  Tb  Tb7  1  0.49999979  0.50000012  0.49999987  1
  S  S8  1  0.81148719  0.57416986  0.68289866  1
  S  S9  1  0.81148720  0.92583006  0.68289867  1
  S  S10  1  0.31148692  0.92583011  0.81710119  1
  S  S11  1  0.68851299  0.42583003  0.18289865  1
  S  S12  1  0.18851298  0.07416984  0.31710119  1
  S  S13  1  0.68851301  0.07417001  0.18289873  1
  S  S14  1  0.31148687  0.57416988  0.81710128  1
  S  S15  1  0.18851305  0.42583009  0.31710131  1
  S  S16  1  0.93451245  0.74999994  0.15770624  1
  S  S17  1  0.43451338  0.74999988  0.34229337  1
  S  S18  1  0.56548707  0.24999998  0.65770643  1
  S  S19  1  0.06548725  0.24999999  0.84229347  1
