# generated using pymatgen
data_LaTbS3
_symmetry_space_group_name_H-M   'P 1'
_cell_length_a   7.43892037
_cell_length_b   9.90961312
_cell_length_c   6.96540362
_cell_angle_alpha   90.00000095
_cell_angle_beta   90.00001148
_cell_angle_gamma   89.99999990
_symmetry_Int_Tables_number   1
_chemical_formula_structural   LaTbS3
_chemical_formula_sum   'La4 Tb4 S12'
_cell_volume   513.46742467
_cell_formula_units_Z   4
loop_
 _symmetry_equiv_pos_site_id
 _symmetry_equiv_pos_as_xyz
  1  'x, y, z'
loop_
 _atom_site_type_symbol
 _atom_site_label
 _atom_site_symmetry_multiplicity
 _atom_site_fract_x
 _atom_site_fract_y
 _atom_site_fract_z
 _atom_site_occupancy
  La  La0  1  0.92248361  0.27020807  0.45615179  1
  La  La1  1  0.42204531  0.22012608  0.04768273  1
  La  La2  1  0.57802892  0.72006924  0.95215446  1
  La  La3  1  0.07749945  0.77026037  0.54382623  1
  Tb  Tb4  1  0.01382868  0.50521860  0.00941692  1
  Tb  Tb5  1  -0.01386019  0.00517797  -0.00933738  1
  Tb  Tb6  1  0.49689770  0.01465169  0.52306144  1
  Tb  Tb7  1  0.50314377  0.51463749  0.47697992  1
  S  S8  1  0.84516787  0.54723554  0.66163121  1
  S  S9  1  0.78306089  0.91121595  0.69802446  1
  S  S10  1  0.29080186  0.90287566  0.82271429  1
  S  S11  1  0.70913381  0.40295303  0.17725202  1
  S  S12  1  0.15481667  0.04707741  0.33863226  1
  S  S13  1  0.68685398  0.07404026  0.20027261  1
  S  S14  1  0.31308564  0.57404635  0.79975470  1
  S  S15  1  0.21695443  0.41121115  0.30212631  1
  S  S16  1  0.94074619  0.75520887  0.13334101  1
  S  S17  1  0.42051761  0.75296666  0.33284720  1
  S  S18  1  0.57947102  0.25301991  0.66698894  1
  S  S19  1  0.05909315  0.25520007  0.86661605  1
