# generated using pymatgen
data_LaZrS3
_symmetry_space_group_name_H-M   'P 1'
_cell_length_a   7.34480430
_cell_length_b   9.53970146
_cell_length_c   6.59083909
_cell_angle_alpha   89.99999918
_cell_angle_beta   90.00000084
_cell_angle_gamma   89.99999917
_symmetry_Int_Tables_number   1
_chemical_formula_structural   LaZrS3
_chemical_formula_sum   'La4 Zr4 S12'
_cell_volume   461.80190636
_cell_formula_units_Z   4
loop_
 _symmetry_equiv_pos_site_id
 _symmetry_equiv_pos_as_xyz
  1  'x, y, z'
loop_
 _atom_site_type_symbol
 _atom_site_label
 _atom_site_symmetry_multiplicity
 _atom_site_fract_x
 _atom_site_fract_y
 _atom_site_fract_z
 _atom_site_occupancy
  La  La0  1  0.89870167  0.74999994  0.95638589  1
  La  La1  1  0.39870142  0.74999998  0.54361391  1
  La  La2  1  0.60129844  0.24999999  0.45638585  1
  La  La3  1  0.10129884  0.25000002  0.04361385  1
  Zr  Zr4  1  -0.00000008  0.49999997  0.50000020  1
  Zr  Zr5  1  -0.00000018  0.00000001  0.50000015  1
  Zr  Zr6  1  0.50000026  0.00000006  0.00000013  1
  Zr  Zr7  1  0.50000026  0.50000004  0.00000011  1
  S  S8  1  0.80865087  0.05967354  0.17586405  1
  S  S9  1  0.80865082  0.44032645  0.17586401  1
  S  S10  1  0.30865105  0.44032640  0.32413595  1
  S  S11  1  0.69134897  0.94032641  0.67586407  1
  S  S12  1  0.19134887  0.55967363  0.82413592  1
  S  S13  1  0.69134891  0.55967360  0.67586410  1
  S  S14  1  0.30865104  0.05967358  0.32413595  1
  S  S15  1  0.19134891  0.94032641  0.82413591  1
  S  S16  1  0.95990153  0.25000001  0.63256962  1
  S  S17  1  0.45990126  0.24999990  0.86743023  1
  S  S18  1  0.54009846  0.75000004  0.13256989  1
  S  S19  1  0.04009870  0.75000000  0.36743021  1
