# generated using pymatgen
data_LaZrS3
_symmetry_space_group_name_H-M   'P 1'
_cell_length_a   7.34480449
_cell_length_b   9.53970124
_cell_length_c   6.59083919
_cell_angle_alpha   89.99999954
_cell_angle_beta   89.99999971
_cell_angle_gamma   89.99999953
_symmetry_Int_Tables_number   1
_chemical_formula_structural   LaZrS3
_chemical_formula_sum   'La4 Zr4 S12'
_cell_volume   461.80191472
_cell_formula_units_Z   4
loop_
 _symmetry_equiv_pos_site_id
 _symmetry_equiv_pos_as_xyz
  1  'x, y, z'
loop_
 _atom_site_type_symbol
 _atom_site_label
 _atom_site_symmetry_multiplicity
 _atom_site_fract_x
 _atom_site_fract_y
 _atom_site_fract_z
 _atom_site_occupancy
  La  La0  1  0.89821629  0.75775363  0.93810403  1
  La  La1  1  0.39709097  0.74870604  0.54891331  1
  La  La2  1  0.59873546  0.24119545  0.46499067  1
  La  La3  1  0.08049939  0.24287841  0.01956113  1
  Zr  Zr4  1  0.01074140  0.50450605  0.50765058  1
  Zr  Zr5  1  -0.00207097  0.00011989  0.51583402  1
  Zr  Zr6  1  0.51133696  -0.00046925  0.01142097  1
  Zr  Zr7  1  0.50302231  0.50625189  0.00569201  1
  S  S8  1  0.82712769  0.05590512  0.17253990  1
  S  S9  1  0.83831219  0.45812651  0.17999949  1
  S  S10  1  0.30648461  0.45278120  0.33648641  1
  S  S11  1  0.66562763  0.94850248  0.68410078  1
  S  S12  1  0.19413429  0.53936626  0.83236866  1
  S  S13  1  0.67979791  0.55755528  0.67405926  1
  S  S14  1  0.31525634  0.03600854  0.32938763  1
  S  S15  1  0.18871133  0.94131690  0.83299945  1
  S  S16  1  0.97175690  0.25858322  0.59305674  1
  S  S17  1  0.47686988  0.25291676  0.87995312  1
  S  S18  1  0.54766517  0.75284896  0.13337816  1
  S  S19  1  0.03302975  0.75748712  0.35933564  1
