# generated using pymatgen
data_PrScS3
_symmetry_space_group_name_H-M   'P 1'
_cell_length_a   7.23115598
_cell_length_b   9.65718247
_cell_length_c   6.51427169
_cell_angle_alpha   90.00000000
_cell_angle_beta   90.00000005
_cell_angle_gamma   90.00000001
_symmetry_Int_Tables_number   1
_chemical_formula_structural   PrScS3
_chemical_formula_sum   'Pr4 Sc4 S12'
_cell_volume   454.90848216
_cell_formula_units_Z   4
loop_
 _symmetry_equiv_pos_site_id
 _symmetry_equiv_pos_as_xyz
  1  'x, y, z'
loop_
 _atom_site_type_symbol
 _atom_site_label
 _atom_site_symmetry_multiplicity
 _atom_site_fract_x
 _atom_site_fract_y
 _atom_site_fract_z
 _atom_site_occupancy
  Pr  Pr0  1  0.90087398  0.75000000  0.03732641  1
  Pr  Pr1  1  0.40087398  0.75000000  0.46267359  1
  Pr  Pr2  1  0.59912597  0.25000000  0.53732642  1
  Pr  Pr3  1  0.09912597  0.25000000  0.96267358  1
  Sc  Sc4  1  -0.00000000  0.50000000  0.50000000  1
  Sc  Sc5  1  -0.00000000  0.00000000  0.50000000  1
  Sc  Sc6  1  0.50000000  0.00000000  0.00000000  1
  Sc  Sc7  1  0.50000000  0.50000000  0.00000000  1
  S  S8  1  0.81113442  0.05976840  0.82094453  1
  S  S9  1  0.81113441  0.44023160  0.82094453  1
  S  S10  1  0.31113441  0.44023161  0.67905547  1
  S  S11  1  0.68886560  0.94023161  0.32094454  1
  S  S12  1  0.18886560  0.55976840  0.17905546  1
  S  S13  1  0.68886560  0.55976839  0.32094454  1
  S  S14  1  0.31113441  0.05976840  0.67905547  1
  S  S15  1  0.18886560  0.94023161  0.17905546  1
  S  S16  1  0.96512533  0.25000000  0.37766954  1
  S  S17  1  0.46512533  0.25000000  0.12233046  1
  S  S18  1  0.53487470  0.75000000  0.87766956  1
  S  S19  1  0.03487469  0.75000000  0.62233043  1
