# generated using pymatgen
data_PrUSe3
_symmetry_space_group_name_H-M   'P 1'
_cell_length_a   7.86424484
_cell_length_b   10.78858465
_cell_length_c   6.66563683
_cell_angle_alpha   89.99999866
_cell_angle_beta   89.99999964
_cell_angle_gamma   89.99999936
_symmetry_Int_Tables_number   1
_chemical_formula_structural   PrUSe3
_chemical_formula_sum   'Pr4 U4 Se12'
_cell_volume   565.53976505
_cell_formula_units_Z   4
loop_
 _symmetry_equiv_pos_site_id
 _symmetry_equiv_pos_as_xyz
  1  'x, y, z'
loop_
 _atom_site_type_symbol
 _atom_site_label
 _atom_site_symmetry_multiplicity
 _atom_site_fract_x
 _atom_site_fract_y
 _atom_site_fract_z
 _atom_site_occupancy
  Pr  Pr0  1  0.88728673  0.74999999  0.94166815  1
  Pr  Pr1  1  0.38728689  0.74999997  0.55833192  1
  Pr  Pr2  1  0.61271327  0.25000000  0.44166821  1
  Pr  Pr3  1  0.11271322  0.25000001  0.05833192  1
  U  U4  1  0.00000018  0.50000000  0.49999996  1
  U  U5  1  0.00000002  -0.00000012  0.49999993  1
  U  U6  1  0.50000001  0.00000005  0.00000008  1
  U  U7  1  0.50000014  0.50000002  -0.00000008  1
  Se  Se8  1  0.81925530  0.07699172  0.15751939  1
  Se  Se9  1  0.81925492  0.42300824  0.15751889  1
  Se  Se10  1  0.31925497  0.42300825  0.34248098  1
  Se  Se11  1  0.68074486  0.92300826  0.65751909  1
  Se  Se12  1  0.18074485  0.57699179  0.84248089  1
  Se  Se13  1  0.68074486  0.57699176  0.65751923  1
  Se  Se14  1  0.31925513  0.07699170  0.34248079  1
  Se  Se15  1  0.18074465  0.92300823  0.84248063  1
  Se  Se16  1  0.95434868  0.25000001  0.64848067  1
  Se  Se17  1  0.45434865  0.24999987  0.85151929  1
  Se  Se18  1  0.54565135  0.75000022  0.14848068  1
  Se  Se19  1  0.04565132  0.75000005  0.35151936  1
