# generated using pymatgen
data_PrUSe3
_symmetry_space_group_name_H-M   'P 1'
_cell_length_a   7.86424447
_cell_length_b   10.78858465
_cell_length_c   6.66563663
_cell_angle_alpha   89.99999800
_cell_angle_beta   90.00000246
_cell_angle_gamma   89.99999958
_symmetry_Int_Tables_number   1
_chemical_formula_structural   PrUSe3
_chemical_formula_sum   'Pr4 U4 Se12'
_cell_volume   565.53972202
_cell_formula_units_Z   4
loop_
 _symmetry_equiv_pos_site_id
 _symmetry_equiv_pos_as_xyz
  1  'x, y, z'
loop_
 _atom_site_type_symbol
 _atom_site_label
 _atom_site_symmetry_multiplicity
 _atom_site_fract_x
 _atom_site_fract_y
 _atom_site_fract_z
 _atom_site_occupancy
  Pr  Pr0  1  0.91820296  0.74967970  0.92247042  1
  Pr  Pr1  1  0.41823210  0.75020497  0.57761027  1
  Pr  Pr2  1  0.58170649  0.24979860  0.42253490  1
  Pr  Pr3  1  0.08172140  0.25041971  0.07749100  1
  U  U4  1  0.00006351  0.50011960  0.49976429  1
  U  U5  1  -0.00004712  0.00009283  0.50009352  1
  U  U6  1  0.49993226  -0.00008001  0.00031762  1
  U  U7  1  0.50009021  0.49992943  -0.00020040  1
  Se  Se8  1  0.80645105  0.07149501  0.16220998  1
  Se  Se9  1  0.80677226  0.42846727  0.16163219  1
  Se  Se10  1  0.30614026  0.42846831  0.33766910  1
  Se  Se11  1  0.69297502  0.92849308  0.66193492  1
  Se  Se12  1  0.19301344  0.57143810  0.83851518  1
  Se  Se13  1  0.69387819  0.57146534  0.66206446  1
  Se  Se14  1  0.30704421  0.07142394  0.33837081  1
  Se  Se15  1  0.19382612  0.92842812  0.83749606  1
  Se  Se16  1  0.93502789  0.25017818  0.63970823  1
  Se  Se17  1  0.43505896  0.24975681  0.86024296  1
  Se  Se18  1  0.56493106  0.74992247  0.13987660  1
  Se  Se19  1  0.06500905  0.75009305  0.36016477  1
