# generated using pymatgen
data_ScUS3
_symmetry_space_group_name_H-M   'P 1'
_cell_length_a   7.20336877
_cell_length_b   9.06265965
_cell_length_c   6.35655071
_cell_angle_alpha   89.99999996
_cell_angle_beta   90.00000116
_cell_angle_gamma   89.99999926
_symmetry_Int_Tables_number   1
_chemical_formula_structural   ScUS3
_chemical_formula_sum   'Sc4 U4 S12'
_cell_volume   414.96630601
_cell_formula_units_Z   4
loop_
 _symmetry_equiv_pos_site_id
 _symmetry_equiv_pos_as_xyz
  1  'x, y, z'
loop_
 _atom_site_type_symbol
 _atom_site_label
 _atom_site_symmetry_multiplicity
 _atom_site_fract_x
 _atom_site_fract_y
 _atom_site_fract_z
 _atom_site_occupancy
  Sc  Sc0  1  -0.00002857  0.50001872  0.50003149  1
  Sc  Sc1  1  0.00000872  0.00003275  0.50003105  1
  Sc  Sc2  1  0.49995672  -0.00004665  -0.00000951  1
  Sc  Sc3  1  0.49995510  0.49997109  -0.00006235  1
  U  U4  1  0.87598763  0.75002056  0.93955039  1
  U  U5  1  0.37600910  0.74997854  0.56046504  1
  U  U6  1  0.62403930  0.24998331  0.43958792  1
  U  U7  1  0.12401254  0.25002575  0.06042552  1
  S  S8  1  0.82826118  0.07903245  0.17651184  1
  S  S9  1  0.82826591  0.42096964  0.17651694  1
  S  S10  1  0.32832822  0.42094672  0.32339897  1
  S  S11  1  0.67172195  0.92096301  0.67659371  1
  S  S12  1  0.17167021  0.57906082  0.82330046  1
  S  S13  1  0.67173287  0.57904709  0.67663431  1
  S  S14  1  0.32818975  0.07906315  0.32347948  1
  S  S15  1  0.17179243  0.92091776  0.82339378  1
  S  S16  1  0.94754689  0.25002186  0.67058262  1
  S  S17  1  0.44749351  0.24997269  0.82939717  1
  S  S18  1  0.55237078  0.74996815  0.17057836  1
  S  S19  1  0.05241940  0.75000943  0.32941219  1
