# generated using pymatgen
data_ScUS3
_symmetry_space_group_name_H-M   'P 1'
_cell_length_a   7.20336887
_cell_length_b   9.06265977
_cell_length_c   6.35655074
_cell_angle_alpha   89.99999957
_cell_angle_beta   89.99999973
_cell_angle_gamma   90.00000055
_symmetry_Int_Tables_number   1
_chemical_formula_structural   ScUS3
_chemical_formula_sum   'Sc4 U4 S12'
_cell_volume   414.96631927
_cell_formula_units_Z   4
loop_
 _symmetry_equiv_pos_site_id
 _symmetry_equiv_pos_as_xyz
  1  'x, y, z'
loop_
 _atom_site_type_symbol
 _atom_site_label
 _atom_site_symmetry_multiplicity
 _atom_site_fract_x
 _atom_site_fract_y
 _atom_site_fract_z
 _atom_site_occupancy
  Sc  Sc0  1  -0.00000002  0.50000002  0.50000002  1
  Sc  Sc1  1  -0.00000001  0.00000000  0.49999999  1
  Sc  Sc2  1  0.49999997  0.00000001  -0.00000004  1
  Sc  Sc3  1  0.49999997  0.50000001  0.00000000  1
  U  U4  1  0.88495067  0.74999998  0.94388411  1
  U  U5  1  0.38495078  0.74999995  0.55611587  1
  U  U6  1  0.61504927  0.25000006  0.44388422  1
  U  U7  1  0.11504939  0.25000002  0.05611575  1
  S  S8  1  0.81909131  0.06631557  0.15852591  1
  S  S9  1  0.81909118  0.43368431  0.15852607  1
  S  S10  1  0.31909119  0.43368446  0.34147400  1
  S  S11  1  0.68090874  0.93368432  0.65852601  1
  S  S12  1  0.18090879  0.56631562  0.84147402  1
  S  S13  1  0.68090876  0.56631564  0.65852596  1
  S  S14  1  0.31909130  0.06631565  0.34147403  1
  S  S15  1  0.18090878  0.93368442  0.84147395  1
  S  S16  1  0.93996606  0.24999997  0.67209357  1
  S  S17  1  0.43996601  0.24999996  0.82790644  1
  S  S18  1  0.56003393  0.75000003  0.17209377  1
  S  S19  1  0.06003393  0.75000003  0.32790638  1
