# generated using pymatgen
data_SmLuS3
_symmetry_space_group_name_H-M   'P 1'
_cell_length_a   7.27659365
_cell_length_b   9.83079385
_cell_length_c   6.60412260
_cell_angle_alpha   90.00000006
_cell_angle_beta   90.00000009
_cell_angle_gamma   89.99999943
_symmetry_Int_Tables_number   1
_chemical_formula_structural   SmLuS3
_chemical_formula_sum   'Sm4 Lu4 S12'
_cell_volume   472.42387735
_cell_formula_units_Z   4
loop_
 _symmetry_equiv_pos_site_id
 _symmetry_equiv_pos_as_xyz
  1  'x, y, z'
loop_
 _atom_site_type_symbol
 _atom_site_label
 _atom_site_symmetry_multiplicity
 _atom_site_fract_x
 _atom_site_fract_y
 _atom_site_fract_z
 _atom_site_occupancy
  Sm  Sm0  1  0.90073785  0.74999989  0.45691055  1
  Sm  Sm1  1  0.40073794  0.74999998  0.04308926  1
  Sm  Sm2  1  0.59926197  0.24999996  0.95691102  1
  Sm  Sm3  1  0.09926204  0.25000005  0.54308888  1
  Lu  Lu4  1  0.00000002  0.50000003  -0.00000006  1
  Lu  Lu5  1  0.00000001  -0.00000005  -0.00000002  1
  Lu  Lu6  1  0.50000003  0.00000001  0.49999999  1
  Lu  Lu7  1  0.50000003  0.50000004  0.49999994  1
  S  S8  1  0.81383228  0.07446775  0.67595769  1
  S  S9  1  0.81383239  0.42553223  0.67595762  1
  S  S10  1  0.31383231  0.42553214  0.82404234  1
  S  S11  1  0.68616764  0.92553221  0.17595767  1
  S  S12  1  0.18616764  0.57446790  0.32404235  1
  S  S13  1  0.68616770  0.57446784  0.17595782  1
  S  S14  1  0.31383237  0.07446784  0.82404234  1
  S  S15  1  0.18616769  0.92553219  0.32404229  1
  S  S16  1  0.94666762  0.25000004  0.14938268  1
  S  S17  1  0.44666761  0.25000000  0.35061748  1
  S  S18  1  0.55333244  0.74999999  0.64938253  1
  S  S19  1  0.05333243  0.74999994  0.85061763  1
