# generated using pymatgen
data_SmScS3
_symmetry_space_group_name_H-M   'P 1'
_cell_length_a   7.12448990
_cell_length_b   9.50964778
_cell_length_c   6.51297311
_cell_angle_alpha   89.99999992
_cell_angle_beta   89.99999995
_cell_angle_gamma   89.99999993
_symmetry_Int_Tables_number   1
_chemical_formula_structural   SmScS3
_chemical_formula_sum   'Sm4 Sc4 S12'
_cell_volume   441.26297849
_cell_formula_units_Z   4
loop_
 _symmetry_equiv_pos_site_id
 _symmetry_equiv_pos_as_xyz
  1  'x, y, z'
loop_
 _atom_site_type_symbol
 _atom_site_label
 _atom_site_symmetry_multiplicity
 _atom_site_fract_x
 _atom_site_fract_y
 _atom_site_fract_z
 _atom_site_occupancy
  Sm  Sm0  1  0.89845280  0.75000000  0.95760004  1
  Sm  Sm1  1  0.39845279  0.74999999  0.54240001  1
  Sm  Sm2  1  0.60154722  0.24999999  0.45759998  1
  Sm  Sm3  1  0.10154720  0.24999999  0.04240001  1
  Sc  Sc4  1  0.00000000  0.50000000  0.50000000  1
  Sc  Sc5  1  0.00000000  -0.00000000  0.50000000  1
  Sc  Sc6  1  0.50000000  -0.00000000  -0.00000001  1
  Sc  Sc7  1  0.50000000  0.50000000  -0.00000000  1
  S  S8  1  0.81613746  0.06647061  0.17485707  1
  S  S9  1  0.81613746  0.43352939  0.17485707  1
  S  S10  1  0.31613746  0.43352940  0.32514295  1
  S  S11  1  0.68386254  0.93352939  0.67485704  1
  S  S12  1  0.18386255  0.56647062  0.82514294  1
  S  S13  1  0.68386254  0.56647059  0.67485704  1
  S  S14  1  0.31613744  0.06647063  0.32514292  1
  S  S15  1  0.18386254  0.93352940  0.82514295  1
  S  S16  1  0.95540740  0.25000000  0.64250406  1
  S  S17  1  0.45540741  0.25000000  0.85749596  1
  S  S18  1  0.54459260  0.75000001  0.14250403  1
  S  S19  1  0.04459260  0.75000000  0.35749594  1
