# generated using pymatgen
data_SmUSe3
_symmetry_space_group_name_H-M   'P 1'
_cell_length_a   7.65391457
_cell_length_b   10.22448676
_cell_length_c   6.98061253
_cell_angle_alpha   90.00000111
_cell_angle_beta   89.99999620
_cell_angle_gamma   90.00000598
_symmetry_Int_Tables_number   1
_chemical_formula_structural   SmUSe3
_chemical_formula_sum   'Sm4 U4 Se12'
_cell_volume   546.28422511
_cell_formula_units_Z   4
loop_
 _symmetry_equiv_pos_site_id
 _symmetry_equiv_pos_as_xyz
  1  'x, y, z'
loop_
 _atom_site_type_symbol
 _atom_site_label
 _atom_site_symmetry_multiplicity
 _atom_site_fract_x
 _atom_site_fract_y
 _atom_site_fract_z
 _atom_site_occupancy
  Sm  Sm0  1  -0.01051330  0.48526997  0.45922937  1
  Sm  Sm1  1  -0.00954898  0.00863309  0.48905658  1
  Sm  Sm2  1  0.47617742  0.00634240  0.02044022  1
  Sm  Sm3  1  0.49299113  0.49944763  -0.01141155  1
  U  U4  1  0.88490315  0.22962098  0.92862037  1
  U  U5  1  0.38462557  0.25779745  0.56292308  1
  U  U6  1  0.62488381  0.76367474  0.46406103  1
  U  U7  1  0.11122945  0.75452411  0.05251042  1
  Se  Se8  1  0.80506693  0.61835477  0.16223474  1
  Se  Se9  1  0.83828203  0.95033904  0.14543337  1
  Se  Se10  1  0.30610915  0.90561475  0.34781560  1
  Se  Se11  1  0.69758448  0.39912014  0.67637649  1
  Se  Se12  1  0.19519587  0.07583159  0.80530188  1
  Se  Se13  1  0.65335101  0.04891110  0.66925318  1
  Se  Se14  1  0.33760956  0.56608433  0.36121080  1
  Se  Se15  1  0.16568487  0.43434615  0.84908061  1
  Se  Se16  1  0.95460570  0.73244058  0.68701721  1
  Se  Se17  1  0.42204887  0.74426221  0.83841543  1
  Se  Se18  1  0.60259003  0.25918420  0.22294039  1
  Se  Se19  1  0.10177138  0.24916393  0.29173438  1
