# generated using pymatgen
data_SmUSe3
_symmetry_space_group_name_H-M   'P 1'
_cell_length_a   7.65391473
_cell_length_b   10.22448950
_cell_length_c   6.98061370
_cell_angle_alpha   90.00000409
_cell_angle_beta   90.00000303
_cell_angle_gamma   90.00000006
_symmetry_Int_Tables_number   1
_chemical_formula_structural   SmUSe3
_chemical_formula_sum   'Sm4 U4 Se12'
_cell_volume   546.28447460
_cell_formula_units_Z   4
loop_
 _symmetry_equiv_pos_site_id
 _symmetry_equiv_pos_as_xyz
  1  'x, y, z'
loop_
 _atom_site_type_symbol
 _atom_site_label
 _atom_site_symmetry_multiplicity
 _atom_site_fract_x
 _atom_site_fract_y
 _atom_site_fract_z
 _atom_site_occupancy
  Sm  Sm0  1  0.00000051  0.49999988  0.49999950  1
  Sm  Sm1  1  0.00000007  -0.00000073  0.49999974  1
  Sm  Sm2  1  0.49999928  -0.00000086  -0.00000022  1
  Sm  Sm3  1  0.49999909  0.49999949  0.00000026  1
  U  U4  1  0.87534078  0.25000012  0.94187552  1
  U  U5  1  0.37534221  0.24999989  0.55812527  1
  U  U6  1  0.62465835  0.75000037  0.44187488  1
  U  U7  1  0.12465694  0.74999996  0.05812562  1
  Se  Se8  1  0.82751760  0.58319533  0.15860134  1
  Se  Se9  1  0.82751770  0.91680544  0.15860034  1
  Se  Se10  1  0.32751716  0.91680564  0.34139991  1
  Se  Se11  1  0.67248265  0.41680504  0.65860013  1
  Se  Se12  1  0.17248286  0.08319481  0.84139954  1
  Se  Se13  1  0.67248346  0.08319466  0.65860066  1
  Se  Se14  1  0.32751631  0.58319514  0.34139915  1
  Se  Se15  1  0.17248318  0.41680549  0.84140000  1
  Se  Se16  1  0.93480829  0.74999974  0.68835073  1
  Se  Se17  1  0.43480851  0.75000072  0.81164849  1
  Se  Se18  1  0.56519311  0.24999997  0.18835086  1
  Se  Se19  1  0.06519196  0.24999990  0.31164829  1
