# generated using pymatgen
data_SmZrS3
_symmetry_space_group_name_H-M   'P 1'
_cell_length_a   7.23487468
_cell_length_b   9.42544424
_cell_length_c   6.47596021
_cell_angle_alpha   90.00000148
_cell_angle_beta   89.99999996
_cell_angle_gamma   89.99999918
_symmetry_Int_Tables_number   1
_chemical_formula_structural   SmZrS3
_chemical_formula_sum   'Sm4 Zr4 S12'
_cell_volume   441.60808242
_cell_formula_units_Z   4
loop_
 _symmetry_equiv_pos_site_id
 _symmetry_equiv_pos_as_xyz
  1  'x, y, z'
loop_
 _atom_site_type_symbol
 _atom_site_label
 _atom_site_symmetry_multiplicity
 _atom_site_fract_x
 _atom_site_fract_y
 _atom_site_fract_z
 _atom_site_occupancy
  Sm  Sm0  1  0.88995443  0.75000004  0.94926366  1
  Sm  Sm1  1  0.38995436  0.75000001  0.55073630  1
  Sm  Sm2  1  0.61004569  0.24999999  0.44926372  1
  Sm  Sm3  1  0.11004547  0.24999991  0.05073631  1
  Zr  Zr4  1  0.00000014  0.49999998  0.49999990  1
  Zr  Zr5  1  0.00000015  0.00000007  0.49999985  1
  Zr  Zr6  1  0.49999986  -0.00000006  -0.00000011  1
  Zr  Zr7  1  0.49999989  0.49999998  0.00000010  1
  S  S8  1  0.81189802  0.06778873  0.17392734  1
  S  S9  1  0.81189809  0.43221137  0.17392727  1
  S  S10  1  0.31189824  0.43221135  0.32607280  1
  S  S11  1  0.68810188  0.93221133  0.67392730  1
  S  S12  1  0.18810192  0.56778868  0.82607268  1
  S  S13  1  0.68810187  0.56778863  0.67392734  1
  S  S14  1  0.31189825  0.06778867  0.32607265  1
  S  S15  1  0.18810183  0.93221130  0.82607276  1
  S  S16  1  0.95410427  0.24999995  0.65073953  1
  S  S17  1  0.45410452  0.25000002  0.84926042  1
  S  S18  1  0.54589568  0.75000000  0.15073957  1
  S  S19  1  0.04589543  0.75000004  0.34926062  1
