# generated using pymatgen
data_SrCeS3
_symmetry_space_group_name_H-M   'P 1'
_cell_length_a   7.64863032
_cell_length_b   9.96933564
_cell_length_c   7.16919963
_cell_angle_alpha   89.99999770
_cell_angle_beta   90.00000239
_cell_angle_gamma   90.00000056
_symmetry_Int_Tables_number   1
_chemical_formula_structural   SrCeS3
_chemical_formula_sum   'Sr4 Ce4 S12'
_cell_volume   546.66410922
_cell_formula_units_Z   4
loop_
 _symmetry_equiv_pos_site_id
 _symmetry_equiv_pos_as_xyz
  1  'x, y, z'
loop_
 _atom_site_type_symbol
 _atom_site_label
 _atom_site_symmetry_multiplicity
 _atom_site_fract_x
 _atom_site_fract_y
 _atom_site_fract_z
 _atom_site_occupancy
  Sr  Sr0  1  0.92822505  0.75000002  0.02916490  1
  Sr  Sr1  1  0.42822501  0.74999992  0.47083503  1
  Sr  Sr2  1  0.57177495  0.24999995  0.52916493  1
  Sr  Sr3  1  0.07177497  0.24999996  0.97083504  1
  Ce  Ce4  1  -0.00000005  0.50000001  0.49999971  1
  Ce  Ce5  1  0.00000006  -0.00000024  0.49999986  1
  Ce  Ce6  1  0.50000021  0.00000001  -0.00000019  1
  Ce  Ce7  1  0.50000014  0.49999980  -0.00000016  1
  S  S8  1  0.79512858  0.05992547  0.80018839  1
  S  S9  1  0.79512879  0.44007465  0.80018840  1
  S  S10  1  0.29512844  0.44007470  0.69981157  1
  S  S11  1  0.70487133  0.94007464  0.30018863  1
  S  S12  1  0.20487158  0.55992556  0.19981147  1
  S  S13  1  0.70487127  0.55992542  0.30018851  1
  S  S14  1  0.29512842  0.05992545  0.69981165  1
  S  S15  1  0.20487148  0.94007482  0.19981141  1
  S  S16  1  0.94472147  0.24999995  0.36902910  1
  S  S17  1  0.44472133  0.24999999  0.13097132  1
  S  S18  1  0.55527841  0.74999996  0.86902892  1
  S  S19  1  0.05527856  0.74999994  0.63097150  1
