# generated using pymatgen
data_SrCeS3
_symmetry_space_group_name_H-M   'P 1'
_cell_length_a   7.64862997
_cell_length_b   9.96933629
_cell_length_c   7.16919940
_cell_angle_alpha   89.99999815
_cell_angle_beta   90.00000299
_cell_angle_gamma   89.99999953
_symmetry_Int_Tables_number   1
_chemical_formula_structural   SrCeS3
_chemical_formula_sum   'Sr4 Ce4 S12'
_cell_volume   546.66410283
_cell_formula_units_Z   4
loop_
 _symmetry_equiv_pos_site_id
 _symmetry_equiv_pos_as_xyz
  1  'x, y, z'
loop_
 _atom_site_type_symbol
 _atom_site_label
 _atom_site_symmetry_multiplicity
 _atom_site_fract_x
 _atom_site_fract_y
 _atom_site_fract_z
 _atom_site_occupancy
  Sr  Sr0  1  0.94034749  0.74423461  0.02613292  1
  Sr  Sr1  1  0.43012430  0.76008599  0.48292498  1
  Sr  Sr2  1  0.57527577  0.26883418  0.50541448  1
  Sr  Sr3  1  0.06914177  0.24379009  0.96635467  1
  Ce  Ce4  1  -0.02281981  0.50584260  0.51670323  1
  Ce  Ce5  1  0.01930329  -0.00363169  0.50362193  1
  Ce  Ce6  1  0.50772106  -0.01078978  -0.01736947  1
  Ce  Ce7  1  0.47995076  0.51316580  0.00869641  1
  S  S8  1  0.82214045  0.02132129  0.82608304  1
  S  S9  1  0.80239937  0.43911727  0.85070720  1
  S  S10  1  0.28966717  0.42790222  0.68357213  1
  S  S11  1  0.69852686  0.94771668  0.31968710  1
  S  S12  1  0.18423140  0.55061325  0.20836367  1
  S  S13  1  0.70253502  0.54967810  0.30328253  1
  S  S14  1  0.31430634  0.06740360  0.68346341  1
  S  S15  1  0.22125699  0.94814740  0.17717398  1
  S  S16  1  0.94105119  0.24544486  0.35799166  1
  S  S17  1  0.43053646  0.23905777  0.10680555  1
  S  S18  1  0.57811118  0.75328483  0.84332801  1
  S  S19  1  0.04379636  0.74395412  0.64100909  1
