# generated using pymatgen
data_SrPrS3
_symmetry_space_group_name_H-M   'P 1'
_cell_length_a   7.82630907
_cell_length_b   9.99808701
_cell_length_c   7.27048115
_cell_angle_alpha   90.00000143
_cell_angle_beta   90.00000273
_cell_angle_gamma   90.00000559
_symmetry_Int_Tables_number   1
_chemical_formula_structural   SrPrS3
_chemical_formula_sum   'Sr4 Pr4 S12'
_cell_volume   568.90147502
_cell_formula_units_Z   4
loop_
 _symmetry_equiv_pos_site_id
 _symmetry_equiv_pos_as_xyz
  1  'x, y, z'
loop_
 _atom_site_type_symbol
 _atom_site_label
 _atom_site_symmetry_multiplicity
 _atom_site_fract_x
 _atom_site_fract_y
 _atom_site_fract_z
 _atom_site_occupancy
  Sr  Sr0  1  0.88305989  0.75424056  -0.02180366  1
  Sr  Sr1  1  0.43969027  0.77394304  0.49516813  1
  Sr  Sr2  1  0.58703775  0.27030444  0.52567723  1
  Sr  Sr3  1  0.07595986  0.23642526  0.95670958  1
  Pr  Pr4  1  0.00916253  0.50268445  0.52569339  1
  Pr  Pr5  1  0.00064160  0.02479763  0.48792469  1
  Pr  Pr6  1  0.49309009  -0.01307986  0.00288830  1
  Pr  Pr7  1  0.51206703  0.46299115  0.02542903  1
  S  S8  1  0.79155809  0.04677577  0.80131264  1
  S  S9  1  0.81688690  0.44549712  0.82412938  1
  S  S10  1  0.30505606  0.42015831  0.70247540  1
  S  S11  1  0.72051760  0.95409167  0.28916660  1
  S  S12  1  0.22689091  0.64834708  0.18694957  1
  S  S13  1  0.69073400  0.56484343  0.33273182  1
  S  S14  1  0.31117992  0.07393665  0.68954265  1
  S  S15  1  0.18814467  0.86859615  0.15931909  1
  S  S16  1  0.92983021  0.27599515  0.32329145  1
  S  S17  1  0.39039956  0.22113897  0.18336541  1
  S  S18  1  0.53184314  0.71902288  0.86089517  1
  S  S19  1  0.07015619  0.76554293  0.58344441  1
