# generated using pymatgen
data_SrPrS3
_symmetry_space_group_name_H-M   'P 1'
_cell_length_a   7.82630943
_cell_length_b   9.99808380
_cell_length_c   7.27048316
_cell_angle_alpha   90.00001407
_cell_angle_beta   90.00000514
_cell_angle_gamma   89.99999621
_symmetry_Int_Tables_number   1
_chemical_formula_structural   SrPrS3
_chemical_formula_sum   'Sr4 Pr4 S12'
_cell_volume   568.90147494
_cell_formula_units_Z   4
loop_
 _symmetry_equiv_pos_site_id
 _symmetry_equiv_pos_as_xyz
  1  'x, y, z'
loop_
 _atom_site_type_symbol
 _atom_site_label
 _atom_site_symmetry_multiplicity
 _atom_site_fract_x
 _atom_site_fract_y
 _atom_site_fract_z
 _atom_site_occupancy
  Sr  Sr0  1  0.91099389  0.75000025  0.03459181  1
  Sr  Sr1  1  0.41099309  0.74999984  0.46540803  1
  Sr  Sr2  1  0.58900613  0.25000000  0.53459219  1
  Sr  Sr3  1  0.08900661  0.25000042  0.96540806  1
  Pr  Pr4  1  0.00000025  0.49999960  0.49999972  1
  Pr  Pr5  1  0.00000021  -0.00000021  0.49999799  1
  Pr  Pr6  1  0.50000097  0.00000068  -0.00000034  1
  Pr  Pr7  1  0.49999872  0.50000011  -0.00000151  1
  S  S8  1  0.80473457  0.07442032  0.81309860  1
  S  S9  1  0.80473512  0.42557929  0.81309866  1
  S  S10  1  0.30473556  0.42557961  0.68690248  1
  S  S11  1  0.69526526  0.92557985  0.31309797  1
  S  S12  1  0.19526490  0.57441993  0.18690249  1
  S  S13  1  0.69526503  0.57442067  0.31309870  1
  S  S14  1  0.30473490  0.07442048  0.68690211  1
  S  S15  1  0.19526413  0.92557981  0.18690262  1
  S  S16  1  0.92898887  0.25000071  0.34061567  1
  S  S17  1  0.42898823  0.24999978  0.15938548  1
  S  S18  1  0.57101204  0.74999951  0.84061594  1
  S  S19  1  0.07101150  0.74999936  0.65938334  1
