# generated using pymatgen
data_SrSnS3
_symmetry_space_group_name_H-M   'P 1'
_cell_length_a   7.34332344
_cell_length_b   10.05012641
_cell_length_c   6.71822816
_cell_angle_alpha   89.99999968
_cell_angle_beta   89.99999903
_cell_angle_gamma   89.99999962
_symmetry_Int_Tables_number   1
_chemical_formula_structural   SrSnS3
_chemical_formula_sum   'Sr4 Sn4 S12'
_cell_volume   495.81416590
_cell_formula_units_Z   4
loop_
 _symmetry_equiv_pos_site_id
 _symmetry_equiv_pos_as_xyz
  1  'x, y, z'
loop_
 _atom_site_type_symbol
 _atom_site_label
 _atom_site_symmetry_multiplicity
 _atom_site_fract_x
 _atom_site_fract_y
 _atom_site_fract_z
 _atom_site_occupancy
  Sr  Sr0  1  0.91400954  0.74999998  0.03552819  1
  Sr  Sr1  1  0.41400931  0.75000003  0.46447182  1
  Sr  Sr2  1  0.58599075  0.24999999  0.53552822  1
  Sr  Sr3  1  0.08599063  0.25000001  0.96447199  1
  Sn  Sn4  1  0.00000004  0.50000004  0.50000012  1
  Sn  Sn5  1  0.00000003  -0.00000006  0.50000015  1
  Sn  Sn6  1  0.50000000  -0.00000009  0.00000006  1
  Sn  Sn7  1  0.49999995  0.49999999  0.00000010  1
  S  S8  1  0.80590122  0.05359150  0.81533328  1
  S  S9  1  0.80590120  0.44640853  0.81533322  1
  S  S10  1  0.30590126  0.44640853  0.68466671  1
  S  S11  1  0.69409870  0.94640856  0.31533325  1
  S  S12  1  0.19409877  0.55359147  0.18466664  1
  S  S13  1  0.69409881  0.55359144  0.31533329  1
  S  S14  1  0.30590125  0.05359147  0.68466670  1
  S  S15  1  0.19409877  0.94640856  0.18466672  1
  S  S16  1  0.97113518  0.24999994  0.39100855  1
  S  S17  1  0.47113502  0.25000004  0.10899104  1
  S  S18  1  0.52886478  0.75000004  0.89100869  1
  S  S19  1  0.02886478  0.75000003  0.60899125  1
