# generated using pymatgen
data_SrUSe3
_symmetry_space_group_name_H-M   'P 1'
_cell_length_a   8.04824850
_cell_length_b   10.50623410
_cell_length_c   7.09550355
_cell_angle_alpha   89.99999917
_cell_angle_beta   89.99999831
_cell_angle_gamma   89.99999828
_symmetry_Int_Tables_number   1
_chemical_formula_structural   SrUSe3
_chemical_formula_sum   'Sr4 U4 Se12'
_cell_volume   599.97295252
_cell_formula_units_Z   4
loop_
 _symmetry_equiv_pos_site_id
 _symmetry_equiv_pos_as_xyz
  1  'x, y, z'
loop_
 _atom_site_type_symbol
 _atom_site_label
 _atom_site_symmetry_multiplicity
 _atom_site_fract_x
 _atom_site_fract_y
 _atom_site_fract_z
 _atom_site_occupancy
  Sr  Sr0  1  0.90574974  0.75001401  0.07142948  1
  Sr  Sr1  1  0.40576817  0.74997767  0.42858342  1
  Sr  Sr2  1  0.59423666  0.24998584  0.57141295  1
  Sr  Sr3  1  0.09422498  0.24999152  0.92858103  1
  U  U4  1  0.00003747  0.50000981  0.49998790  1
  U  U5  1  -0.00002476  -0.00000195  0.50004381  1
  U  U6  1  0.50004185  0.00000503  0.00004596  1
  U  U7  1  0.49996411  0.49998592  -0.00001979  1
  Se  Se8  1  0.82802548  0.03895179  0.83792275  1
  Se  Se9  1  0.82787248  0.46095559  0.83764208  1
  Se  Se10  1  0.32809036  0.46116007  0.66193104  1
  Se  Se11  1  0.67199306  0.96104228  0.33788433  1
  Se  Se12  1  0.17190645  0.53884701  0.16197419  1
  Se  Se13  1  0.67210412  0.53904054  0.33766981  1
  Se  Se14  1  0.32800542  0.03895355  0.66227850  1
  Se  Se15  1  0.17200709  0.96106026  0.16224856  1
  Se  Se16  1  0.96268971  0.24995615  0.35204530  1
  Se  Se17  1  0.46273334  0.25005364  0.14809077  1
  Se  Se18  1  0.53729434  0.75003890  0.85204597  1
  Se  Se19  1  0.03724475  0.74997814  0.64808457  1
