# generated using pymatgen
data_SrUS3
_symmetry_space_group_name_H-M   'P 1'
_cell_length_a   7.62495856
_cell_length_b   10.24180744
_cell_length_c   6.76058490
_cell_angle_alpha   89.99999991
_cell_angle_beta   89.99999982
_cell_angle_gamma   90.00000212
_symmetry_Int_Tables_number   1
_chemical_formula_structural   SrUS3
_chemical_formula_sum   'Sr4 U4 S12'
_cell_volume   527.95677147
_cell_formula_units_Z   4
loop_
 _symmetry_equiv_pos_site_id
 _symmetry_equiv_pos_as_xyz
  1  'x, y, z'
loop_
 _atom_site_type_symbol
 _atom_site_label
 _atom_site_symmetry_multiplicity
 _atom_site_fract_x
 _atom_site_fract_y
 _atom_site_fract_z
 _atom_site_occupancy
  Sr  Sr0  1  0.95765233  0.24950228  0.52005175  1
  Sr  Sr1  1  0.45458979  0.25035811  0.97848546  1
  Sr  Sr2  1  0.54649953  0.75046905  0.02116685  1
  Sr  Sr3  1  0.04185418  0.74964571  0.47960557  1
  U  U4  1  -0.00003029  0.50023508  0.00005246  1
  U  U5  1  0.00000626  0.00006790  0.00012941  1
  U  U6  1  0.49982636  -0.00018043  0.50012700  1
  U  U7  1  0.50008351  0.49980960  0.49994685  1
  S  S8  1  0.76827107  0.56709372  0.27223902  1
  S  S9  1  0.76837796  0.93376648  0.27364790  1
  S  S10  1  0.26733608  0.93006042  0.23017246  1
  S  S11  1  0.73323430  0.43006950  0.76966815  1
  S  S12  1  0.23166424  0.06705622  0.72769414  1
  S  S13  1  0.73202648  0.06965815  0.77049880  1
  S  S14  1  0.26875017  0.56954540  0.22914885  1
  S  S15  1  0.23110101  0.43378234  0.72611195  1
  S  S16  1  0.99479491  0.75013419  0.88482523  1
  S  S17  1  0.50133030  0.74966554  0.61893906  1
  S  S18  1  0.49763571  0.24969461  0.38123927  1
  S  S19  1  0.00469691  0.25004504  0.11580246  1
