# generated using pymatgen
data_SrUSe3
_symmetry_space_group_name_H-M   'P 1'
_cell_length_a   8.04824868
_cell_length_b   10.50623400
_cell_length_c   7.09550345
_cell_angle_alpha   89.99999965
_cell_angle_beta   89.99999930
_cell_angle_gamma   90.00000144
_symmetry_Int_Tables_number   1
_chemical_formula_structural   SrUSe3
_chemical_formula_sum   'Sr4 U4 Se12'
_cell_volume   599.97295216
_cell_formula_units_Z   4
loop_
 _symmetry_equiv_pos_site_id
 _symmetry_equiv_pos_as_xyz
  1  'x, y, z'
loop_
 _atom_site_type_symbol
 _atom_site_label
 _atom_site_symmetry_multiplicity
 _atom_site_fract_x
 _atom_site_fract_y
 _atom_site_fract_z
 _atom_site_occupancy
  Sr  Sr0  1  0.91461205  0.75000000  0.03722578  1
  Sr  Sr1  1  0.41461198  0.75000000  0.46277410  1
  Sr  Sr2  1  0.58538799  0.25000000  0.53722586  1
  Sr  Sr3  1  0.08538798  0.25000001  0.96277413  1
  U  U4  1  0.00000000  0.50000002  0.49999993  1
  U  U5  1  -0.00000005  -0.00000003  0.49999998  1
  U  U6  1  0.50000000  0.00000001  -0.00000000  1
  U  U7  1  0.50000004  0.50000001  -0.00000002  1
  Se  Se8  1  0.80533640  0.06408929  0.82221360  1
  Se  Se9  1  0.80533647  0.43591071  0.82221353  1
  Se  Se10  1  0.30533656  0.43591073  0.67778657  1
  Se  Se11  1  0.69466355  0.93591071  0.32221356  1
  Se  Se12  1  0.19466347  0.56408926  0.17778656  1
  Se  Se13  1  0.69466343  0.56408930  0.32221344  1
  Se  Se14  1  0.30533642  0.06408925  0.67778645  1
  Se  Se15  1  0.19466368  0.93591075  0.17778637  1
  Se  Se16  1  0.94771867  0.25000001  0.37039542  1
  Se  Se17  1  0.44771861  0.25000003  0.12960467  1
  Se  Se18  1  0.55228136  0.74999992  0.87039540  1
  Se  Se19  1  0.05228137  0.75000003  0.62960467  1
