# generated using pymatgen
data_TbEuS3
_symmetry_space_group_name_H-M   'P 1'
_cell_length_a   7.51797453
_cell_length_b   9.76945328
_cell_length_c   6.75812155
_cell_angle_alpha   90.00000434
_cell_angle_beta   90.00000276
_cell_angle_gamma   90.00000306
_symmetry_Int_Tables_number   1
_chemical_formula_structural   TbEuS3
_chemical_formula_sum   'Tb4 Eu4 S12'
_cell_volume   496.36038046
_cell_formula_units_Z   4
loop_
 _symmetry_equiv_pos_site_id
 _symmetry_equiv_pos_as_xyz
  1  'x, y, z'
loop_
 _atom_site_type_symbol
 _atom_site_label
 _atom_site_symmetry_multiplicity
 _atom_site_fract_x
 _atom_site_fract_y
 _atom_site_fract_z
 _atom_site_occupancy
  Tb  Tb0  1  -0.00293180  0.49631600  0.49646056  1
  Tb  Tb1  1  0.00434592  -0.00952931  0.50503537  1
  Tb  Tb2  1  0.49401287  0.00999450  0.00629963  1
  Tb  Tb3  1  0.50406411  0.50355795  -0.00440251  1
  Eu  Eu4  1  0.90769829  0.27584915  0.95558842  1
  Eu  Eu5  1  0.40948418  0.22665726  0.54220305  1
  Eu  Eu6  1  0.59225912  0.72488327  0.45633058  1
  Eu  Eu7  1  0.09091725  0.77285896  0.04190329  1
  S  S8  1  0.82745702  0.56680541  0.14799400  1
  S  S9  1  0.77475053  0.90449242  0.20282769  1
  S  S10  1  0.31993570  0.93099983  0.34336582  1
  S  S11  1  0.67299578  0.43454175  0.64770494  1
  S  S12  1  0.17882330  0.06781128  0.84448317  1
  S  S13  1  0.72286807  0.09367855  0.70014555  1
  S  S14  1  0.27468377  0.59689176  0.30301427  1
  S  S15  1  0.22729658  0.40086320  0.80224419  1
  S  S16  1  0.92656677  0.75345308  0.67365759  1
  S  S17  1  0.42828864  0.74337979  0.83125162  1
  S  S18  1  0.57201633  0.24743436  0.17477420  1
  S  S19  1  0.07514194  0.25678729  0.33055855  1
