# generated using pymatgen
data_TbEuS3
_symmetry_space_group_name_H-M   'P 1'
_cell_length_a   7.51797525
_cell_length_b   9.76945315
_cell_length_c   6.75812207
_cell_angle_alpha   90.00000401
_cell_angle_beta   90.00000568
_cell_angle_gamma   89.99999630
_symmetry_Int_Tables_number   1
_chemical_formula_structural   TbEuS3
_chemical_formula_sum   'Tb4 Eu4 S12'
_cell_volume   496.36046017
_cell_formula_units_Z   4
loop_
 _symmetry_equiv_pos_site_id
 _symmetry_equiv_pos_as_xyz
  1  'x, y, z'
loop_
 _atom_site_type_symbol
 _atom_site_label
 _atom_site_symmetry_multiplicity
 _atom_site_fract_x
 _atom_site_fract_y
 _atom_site_fract_z
 _atom_site_occupancy
  Tb  Tb0  1  0.00000002  0.49999985  0.50000007  1
  Tb  Tb1  1  -0.00000005  -0.00000003  0.50000012  1
  Tb  Tb2  1  0.49999993  0.00000011  0.00000005  1
  Tb  Tb3  1  0.49999995  0.49999998  0.00000016  1
  Eu  Eu4  1  0.90184245  0.25000000  0.95973513  1
  Eu  Eu5  1  0.40184329  0.25000006  0.54026488  1
  Eu  Eu6  1  0.59815688  0.75000008  0.45973472  1
  Eu  Eu7  1  0.09815709  0.75000005  0.04026498  1
  S  S8  1  0.81500699  0.57337993  0.17412971  1
  S  S9  1  0.81500681  0.92662015  0.17412977  1
  S  S10  1  0.31500701  0.92661991  0.32587021  1
  S  S11  1  0.68499296  0.42661992  0.67412954  1
  S  S12  1  0.18499294  0.07338012  0.82587025  1
  S  S13  1  0.68499278  0.07337997  0.67412968  1
  S  S14  1  0.31500710  0.57337995  0.32587030  1
  S  S15  1  0.18499300  0.42661985  0.82587033  1
  S  S16  1  0.93166832  0.75000013  0.66042802  1
  S  S17  1  0.43166842  0.74999994  0.83957229  1
  S  S18  1  0.56833225  0.25000005  0.16042727  1
  S  S19  1  0.06833186  0.24999996  0.33957253  1
