# generated using pymatgen
data_TbScS3
_symmetry_space_group_name_H-M   'P 1'
_cell_length_a   7.01751527
_cell_length_b   9.51156867
_cell_length_c   6.39948866
_cell_angle_alpha   89.99999927
_cell_angle_beta   89.99999656
_cell_angle_gamma   89.99999892
_symmetry_Int_Tables_number   1
_chemical_formula_structural   TbScS3
_chemical_formula_sum   'Tb4 Sc4 S12'
_cell_volume   427.15037055
_cell_formula_units_Z   4
loop_
 _symmetry_equiv_pos_site_id
 _symmetry_equiv_pos_as_xyz
  1  'x, y, z'
loop_
 _atom_site_type_symbol
 _atom_site_label
 _atom_site_symmetry_multiplicity
 _atom_site_fract_x
 _atom_site_fract_y
 _atom_site_fract_z
 _atom_site_occupancy
  Tb  Tb0  1  0.89521840  0.75000017  0.95295809  1
  Tb  Tb1  1  0.39521852  0.75000007  0.54704184  1
  Tb  Tb2  1  0.60478150  0.25000001  0.45295806  1
  Tb  Tb3  1  0.10478147  0.24999990  0.04704184  1
  Sc  Sc4  1  0.00000001  0.49999999  0.50000002  1
  Sc  Sc5  1  -0.00000003  0.00000001  0.49999999  1
  Sc  Sc6  1  0.49999998  0.00000004  -0.00000002  1
  Sc  Sc7  1  0.50000000  0.49999998  0.00000001  1
  S  S8  1  0.81422299  0.07201947  0.17565358  1
  S  S9  1  0.81422299  0.42798048  0.17565352  1
  S  S10  1  0.31422320  0.42798072  0.32434665  1
  S  S11  1  0.68577706  0.92798049  0.67565367  1
  S  S12  1  0.18577693  0.57201951  0.82434654  1
  S  S13  1  0.68577684  0.57201934  0.67565339  1
  S  S14  1  0.31422308  0.07201942  0.32434647  1
  S  S15  1  0.18577704  0.92798040  0.82434637  1
  S  S16  1  0.95404407  0.25000000  0.65195980  1
  S  S17  1  0.45404401  0.24999998  0.84804001  1
  S  S18  1  0.54595603  0.74999998  0.15195991  1
  S  S19  1  0.04595592  0.75000003  0.34804024  1
