# generated using pymatgen
data_TbZnS3
_symmetry_space_group_name_H-M   'P 1'
_cell_length_a   7.15171711
_cell_length_b   8.77170601
_cell_length_c   6.31043552
_cell_angle_alpha   89.99999832
_cell_angle_beta   89.99999937
_cell_angle_gamma   90.00000000
_symmetry_Int_Tables_number   1
_chemical_formula_structural   TbZnS3
_chemical_formula_sum   'Tb4 Zn4 S12'
_cell_volume   395.87103704
_cell_formula_units_Z   4
loop_
 _symmetry_equiv_pos_site_id
 _symmetry_equiv_pos_as_xyz
  1  'x, y, z'
loop_
 _atom_site_type_symbol
 _atom_site_label
 _atom_site_symmetry_multiplicity
 _atom_site_fract_x
 _atom_site_fract_y
 _atom_site_fract_z
 _atom_site_occupancy
  Tb  Tb0  1  0.84068684  0.73623824  0.03363435  1
  Tb  Tb1  1  0.43556285  0.75233682  0.49303485  1
  Tb  Tb2  1  0.63392901  0.25120037  0.53449772  1
  Tb  Tb3  1  0.11835049  0.26198115  0.91465001  1
  Zn  Zn4  1  -0.02233233  0.50944573  0.47780833  1
  Zn  Zn5  1  -0.00967142  -0.01268413  0.52142795  1
  Zn  Zn6  1  0.50598772  0.02372191  -0.02917014  1
  Zn  Zn7  1  0.50594096  0.46979538  0.00702013  1
  S  S8  1  0.81693587  0.06124120  0.82879242  1
  S  S9  1  0.80984908  0.44255589  0.84829053  1
  S  S10  1  0.34283070  0.44723682  0.67539480  1
  S  S11  1  0.69905944  0.93497277  0.33350807  1
  S  S12  1  0.16109426  0.66903933  0.22186930  1
  S  S13  1  0.67085287  0.54108448  0.32582045  1
  S  S14  1  0.30115778  0.04795318  0.64505927  1
  S  S15  1  0.14945511  0.89496579  0.20088488  1
  S  S16  1  0.97942123  0.23817706  0.35898929  1
  S  S17  1  0.42962597  0.23707550  0.14596452  1
  S  S18  1  0.49065390  0.75867455  0.91805074  1
  S  S19  1  0.04858042  0.73814025  0.66398323  1
