# generated using pymatgen
data_TbZnS3
_symmetry_space_group_name_H-M   'P 1'
_cell_length_a   7.15171722
_cell_length_b   8.77170619
_cell_length_c   6.31043554
_cell_angle_alpha   89.99999962
_cell_angle_beta   90.00000045
_cell_angle_gamma   89.99999897
_symmetry_Int_Tables_number   1
_chemical_formula_structural   TbZnS3
_chemical_formula_sum   'Tb4 Zn4 S12'
_cell_volume   395.87105206
_cell_formula_units_Z   4
loop_
 _symmetry_equiv_pos_site_id
 _symmetry_equiv_pos_as_xyz
  1  'x, y, z'
loop_
 _atom_site_type_symbol
 _atom_site_label
 _atom_site_symmetry_multiplicity
 _atom_site_fract_x
 _atom_site_fract_y
 _atom_site_fract_z
 _atom_site_occupancy
  Tb  Tb0  1  0.88519963  0.74999998  0.04010943  1
  Tb  Tb1  1  0.38519961  0.75000001  0.45989043  1
  Tb  Tb2  1  0.61480053  0.25000000  0.54010931  1
  Tb  Tb3  1  0.11480060  0.24999999  0.95989057  1
  Zn  Zn4  1  0.00000051  0.50000001  0.50000021  1
  Zn  Zn5  1  0.00000025  -0.00000004  0.50000007  1
  Zn  Zn6  1  0.49999958  0.00000036  -0.00000108  1
  Zn  Zn7  1  0.49999808  0.50000012  0.00000042  1
  S  S8  1  0.82255123  0.06471327  0.82909154  1
  S  S9  1  0.82255123  0.43528669  0.82909147  1
  S  S10  1  0.32255146  0.43528688  0.67090822  1
  S  S11  1  0.67744876  0.93528670  0.32909164  1
  S  S12  1  0.17744872  0.56471304  0.17090828  1
  S  S13  1  0.67744894  0.56471318  0.32909142  1
  S  S14  1  0.32255111  0.06471318  0.67090840  1
  S  S15  1  0.17744876  0.93528687  0.17090843  1
  S  S16  1  0.95592155  0.25000001  0.35357661  1
  S  S17  1  0.45592225  0.24999985  0.14642396  1
  S  S18  1  0.54407899  0.74999989  0.85357709  1
  S  S19  1  0.04407823  0.75000001  0.64642358  1
