# generated using pymatgen
data_UBiS3
_symmetry_space_group_name_H-M   'P 1'
_cell_length_a   7.53457045
_cell_length_b   8.74572145
_cell_length_c   7.03733143
_cell_angle_alpha   90.00076032
_cell_angle_beta   90.00959524
_cell_angle_gamma   90.00810135
_symmetry_Int_Tables_number   1
_chemical_formula_structural   UBiS3
_chemical_formula_sum   'U4 Bi4 S12'
_cell_volume   463.72673334
_cell_formula_units_Z   4
loop_
 _symmetry_equiv_pos_site_id
 _symmetry_equiv_pos_as_xyz
  1  'x, y, z'
loop_
 _atom_site_type_symbol
 _atom_site_label
 _atom_site_symmetry_multiplicity
 _atom_site_fract_x
 _atom_site_fract_y
 _atom_site_fract_z
 _atom_site_occupancy
  U  U0  1  1.09367388  0.74911353  0.57765423  1
  U  U1  1  0.62566408  0.73532500  1.22918216  1
  U  U2  1  0.41046744  0.24576880  -0.09327341  1
  U  U3  1  -0.04788051  0.25236156  0.45388150  1
  Bi  Bi4  1  -0.14164523  0.46056315  -0.05791578  1
  Bi  Bi5  1  0.11388805  -0.05954058  0.05288770  1
  Bi  Bi6  1  0.43678117  0.10321226  0.39293651  1
  Bi  Bi7  1  0.45427055  0.44961653  0.43251025  1
  S  S8  1  0.83628002  0.55396390  0.43881181  1
  S  S9  1  0.87699352  0.92551446  0.36633567  1
  S  S10  1  0.49737298  0.94719089  0.00656977  1
  S  S11  1  0.49802129  0.53499521  0.97933196  1
  S  S12  1  0.17842597  0.05678676  0.68639013  1
  S  S13  1  0.69403888  0.21979808  0.69531872  1
  S  S14  1  0.23471181  0.69732909  0.23966200  1
  S  S15  1  0.17511623  0.44736121  0.69161848  1
  S  S16  1  0.88474378  0.76073685  0.89093874  1
  S  S17  1  0.49451565  0.76618617  0.55911882  1
  S  S18  1  0.73948340  0.20851099  0.15885570  1
  S  S19  1  0.17379654  0.30873359  0.16738269  1
