# generated using pymatgen
data_UInSe3
_symmetry_space_group_name_H-M   'P 1'
_cell_length_a   7.78680045
_cell_length_b   9.32225602
_cell_length_c   6.99920222
_cell_angle_alpha   90.00000067
_cell_angle_beta   89.99999633
_cell_angle_gamma   89.99999933
_symmetry_Int_Tables_number   1
_chemical_formula_structural   UInSe3
_chemical_formula_sum   'U4 In4 Se12'
_cell_volume   508.07592043
_cell_formula_units_Z   4
loop_
 _symmetry_equiv_pos_site_id
 _symmetry_equiv_pos_as_xyz
  1  'x, y, z'
loop_
 _atom_site_type_symbol
 _atom_site_label
 _atom_site_symmetry_multiplicity
 _atom_site_fract_x
 _atom_site_fract_y
 _atom_site_fract_z
 _atom_site_occupancy
  U  U0  1  0.87712876  0.74999999  0.94478385  1
  U  U1  1  0.37712871  0.74999996  0.55521623  1
  U  U2  1  0.62287130  0.25000004  0.44478377  1
  U  U3  1  0.12287122  0.25000000  0.05521607  1
  In  In4  1  -0.00000044  0.50000053  0.50000063  1
  In  In5  1  -0.00000036  -0.00000066  0.50000119  1
  In  In6  1  0.50000104  0.00000084  0.00000099  1
  In  In7  1  0.50000056  0.49999950  0.00000082  1
  Se  Se8  1  0.82446764  0.06674004  0.15925896  1
  Se  Se9  1  0.82446779  0.43325994  0.15925910  1
  Se  Se10  1  0.32446763  0.43325995  0.34074072  1
  Se  Se11  1  0.67553224  0.93325996  0.65925912  1
  Se  Se12  1  0.17553206  0.56674010  0.84074041  1
  Se  Se13  1  0.67553230  0.56674009  0.65925901  1
  Se  Se14  1  0.32446784  0.06674008  0.34074032  1
  Se  Se15  1  0.17553210  0.93325998  0.84074032  1
  Se  Se16  1  0.93434813  0.24999997  0.68579448  1
  Se  Se17  1  0.43434764  0.24999985  0.81420478  1
  Se  Se18  1  0.56565157  0.74999984  0.18579434  1
  Se  Se19  1  0.06565226  0.75000000  0.31420490  1
