# generated using pymatgen
data_UInS3
_symmetry_space_group_name_H-M   'P 1'
_cell_length_a   7.55114071
_cell_length_b   10.21892398
_cell_length_c   6.74926578
_cell_angle_alpha   90.00000067
_cell_angle_beta   89.99999663
_cell_angle_gamma   90.00000004
_symmetry_Int_Tables_number   1
_chemical_formula_structural   UInS3
_chemical_formula_sum   'U4 In4 S12'
_cell_volume   520.80394136
_cell_formula_units_Z   4
loop_
 _symmetry_equiv_pos_site_id
 _symmetry_equiv_pos_as_xyz
  1  'x, y, z'
loop_
 _atom_site_type_symbol
 _atom_site_label
 _atom_site_symmetry_multiplicity
 _atom_site_fract_x
 _atom_site_fract_y
 _atom_site_fract_z
 _atom_site_occupancy
  U  U0  1  -0.00000011  0.50000005  0.50000019  1
  U  U1  1  -0.00000003  0.00000004  0.50000001  1
  U  U2  1  0.49999998  -0.00000000  -0.00000008  1
  U  U3  1  0.50000003  0.49999994  0.00000002  1
  In  In4  1  1.01846419  0.24999998  0.97866541  1
  In  In5  1  0.51846423  0.25000015  0.52133451  1
  In  In6  1  0.48153581  0.74999991  0.47866542  1
  In  In7  1  -0.01846409  0.74999998  0.02133465  1
  S  S8  1  0.81363651  0.55937059  0.17109865  1
  S  S9  1  0.81363654  0.94062959  0.17109881  1
  S  S10  1  0.31363640  0.94062949  0.32890112  1
  S  S11  1  0.68636354  0.44062955  0.67109884  1
  S  S12  1  0.18636359  0.05937045  0.82890114  1
  S  S13  1  0.68636350  0.05937048  0.67109887  1
  S  S14  1  0.31363643  0.55937052  0.32890121  1
  S  S15  1  0.18636355  0.44062939  0.82890124  1
  S  S16  1  0.98444765  0.75000000  0.64422426  1
  S  S17  1  0.48444758  0.74999994  0.85577558  1
  S  S18  1  0.51555235  0.24999993  0.14422431  1
  S  S19  1  0.01555237  0.25000004  0.35577580  1
