# generated using pymatgen
data_UInS3
_symmetry_space_group_name_H-M   'P 1'
_cell_length_a   7.55114060
_cell_length_b   10.21892350
_cell_length_c   6.74926571
_cell_angle_alpha   90.00000121
_cell_angle_beta   90.00001196
_cell_angle_gamma   90.00000203
_symmetry_Int_Tables_number   1
_chemical_formula_structural   UInS3
_chemical_formula_sum   'U4 In4 S12'
_cell_volume   520.80390398
_cell_formula_units_Z   4
loop_
 _symmetry_equiv_pos_site_id
 _symmetry_equiv_pos_as_xyz
  1  'x, y, z'
loop_
 _atom_site_type_symbol
 _atom_site_label
 _atom_site_symmetry_multiplicity
 _atom_site_fract_x
 _atom_site_fract_y
 _atom_site_fract_z
 _atom_site_occupancy
  U  U0  1  -0.00284374  0.49301371  0.50681969  1
  U  U1  1  -0.00871496  -0.00259812  0.50557142  1
  U  U2  1  0.49661249  0.00211745  -0.00348968  1
  U  U3  1  0.50341911  0.49360421  -0.01349886  1
  In  In4  1  0.83348186  0.23414487  1.12523730  1
  In  In5  1  0.39497509  0.27761504  0.42060309  1
  In  In6  1  0.63558317  0.76420841  0.57789989  1
  In  In7  1  0.15418222  0.76167783  -0.10579864  1
  S  S8  1  0.68951222  0.43832107  0.30111249  1
  S  S9  1  0.68034242  1.05181376  0.32148144  1
  S  S10  1  0.22690496  1.06724346  0.22616598  1
  S  S11  1  0.81685465  0.51567313  0.81022171  1
  S  S12  1  0.30521258  -0.05055486  0.68322724  1
  S  S13  1  0.79893168  -0.05505634  0.80850125  1
  S  S14  1  0.19641817  0.46184242  0.20548164  1
  S  S15  1  0.32793370  0.55505826  0.67585152  1
  S  S16  1  0.99486620  0.74511167  0.41883779  1
  S  S17  1  0.50945670  0.74051224  1.04528354  1
  S  S18  1  0.47357675  0.25397368  -0.12646021  1
  S  S19  1  0.00031217  0.24416202  0.60017314  1
