# generated using pymatgen
data_YbEuSe3
_symmetry_space_group_name_H-M   'P 1'
_cell_length_a   8.27821498
_cell_length_b   8.98680867
_cell_length_c   7.72810719
_cell_angle_alpha   89.99999775
_cell_angle_beta   90.00000094
_cell_angle_gamma   89.99999813
_symmetry_Int_Tables_number   1
_chemical_formula_structural   YbEuSe3
_chemical_formula_sum   'Yb4 Eu4 Se12'
_cell_volume   574.93048004
_cell_formula_units_Z   4
loop_
 _symmetry_equiv_pos_site_id
 _symmetry_equiv_pos_as_xyz
  1  'x, y, z'
loop_
 _atom_site_type_symbol
 _atom_site_label
 _atom_site_symmetry_multiplicity
 _atom_site_fract_x
 _atom_site_fract_y
 _atom_site_fract_z
 _atom_site_occupancy
  Yb  Yb0  1  0.00000002  0.50000005  0.49999997  1
  Yb  Yb1  1  -0.00000008  0.00000004  0.49999998  1
  Yb  Yb2  1  0.50000003  -0.00000032  -0.00000024  1
  Yb  Yb3  1  0.49999994  0.50000000  -0.00000013  1
  Eu  Eu4  1  0.91525445  0.25000001  -0.00380760  1
  Eu  Eu5  1  0.41525464  0.25000001  0.50380735  1
  Eu  Eu6  1  0.58474547  0.74999999  0.49619251  1
  Eu  Eu7  1  0.08474554  0.74999998  1.00380755  1
  Se  Se8  1  0.79750684  0.60836691  0.19821741  1
  Se  Se9  1  0.79750681  0.89163311  0.19821743  1
  Se  Se10  1  0.29750688  0.89163313  0.30178257  1
  Se  Se11  1  0.70249315  0.39163316  0.69821745  1
  Se  Se12  1  0.20249312  0.10836692  0.80178260  1
  Se  Se13  1  0.70249317  0.10836685  0.69821747  1
  Se  Se14  1  0.29750686  0.60836685  0.30178259  1
  Se  Se15  1  0.20249314  0.39163312  0.80178258  1
  Se  Se16  1  0.88897777  0.75000006  0.69353700  1
  Se  Se17  1  0.38897786  0.75000018  0.80646296  1
  Se  Se18  1  0.61102231  0.25000009  0.19353748  1
  Se  Se19  1  0.11102209  0.24999989  0.30646306  1
