# generated using pymatgen
data_YbEuSe3
_symmetry_space_group_name_H-M   'P 1'
_cell_length_a   8.27821588
_cell_length_b   8.98680856
_cell_length_c   7.72810803
_cell_angle_alpha   90.00000137
_cell_angle_beta   89.99999952
_cell_angle_gamma   90.00000065
_symmetry_Int_Tables_number   1
_chemical_formula_structural   YbEuSe3
_chemical_formula_sum   'Yb4 Eu4 Se12'
_cell_volume   574.93059736
_cell_formula_units_Z   4
loop_
 _symmetry_equiv_pos_site_id
 _symmetry_equiv_pos_as_xyz
  1  'x, y, z'
loop_
 _atom_site_type_symbol
 _atom_site_label
 _atom_site_symmetry_multiplicity
 _atom_site_fract_x
 _atom_site_fract_y
 _atom_site_fract_z
 _atom_site_occupancy
  Yb  Yb0  1  -0.04845304  0.53850505  0.47970516  1
  Yb  Yb1  1  0.12543724  -0.06068366  0.57073901  1
  Yb  Yb2  1  0.62514147  -0.10182437  0.01843180  1
  Yb  Yb3  1  0.45435600  0.48872610  -0.05404124  1
  Eu  Eu4  1  0.92117679  0.33082503  0.02766882  1
  Eu  Eu5  1  0.37252832  0.26457598  0.43644804  1
  Eu  Eu6  1  0.57136360  0.73151516  0.47798785  1
  Eu  Eu7  1  0.13503925  0.78324362  1.05637186  1
  Se  Se8  1  0.71988097  0.57370703  0.17307918  1
  Se  Se9  1  0.89178104  0.88122736  0.30296877  1
  Se  Se10  1  0.37465761  0.95389022  0.29523701  1
  Se  Se11  1  0.64474367  0.44615575  0.62471243  1
  Se  Se12  1  0.16186790  0.15392304  0.85777775  1
  Se  Se13  1  0.61624532  0.18280140  0.74599101  1
  Se  Se14  1  0.21951489  0.50471825  0.23143827  1
  Se  Se15  1  0.13677414  0.40181662  0.74799306  1
  Se  Se16  1  0.89891723  0.77427510  0.75603370  1
  Se  Se17  1  0.38390682  0.79253723  0.78822001  1
  Se  Se18  1  0.59665282  0.21567950  0.06826007  1
  Se  Se19  1  0.01194173  0.20372894  0.37871196  1
