# generated using pymatgen
data_YbEuS3
_symmetry_space_group_name_H-M   'P 1'
_cell_length_a   7.90181124
_cell_length_b   8.66028863
_cell_length_c   7.34238153
_cell_angle_alpha   89.99999968
_cell_angle_beta   90.00000797
_cell_angle_gamma   90.00000589
_symmetry_Int_Tables_number   1
_chemical_formula_structural   YbEuS3
_chemical_formula_sum   'Yb4 Eu4 S12'
_cell_volume   502.45360353
_cell_formula_units_Z   4
loop_
 _symmetry_equiv_pos_site_id
 _symmetry_equiv_pos_as_xyz
  1  'x, y, z'
loop_
 _atom_site_type_symbol
 _atom_site_label
 _atom_site_symmetry_multiplicity
 _atom_site_fract_x
 _atom_site_fract_y
 _atom_site_fract_z
 _atom_site_occupancy
  Yb  Yb0  1  0.00000005  0.49999981  0.50000014  1
  Yb  Yb1  1  -0.00000015  -0.00000020  0.50000001  1
  Yb  Yb2  1  0.50000020  -0.00000055  -0.00000022  1
  Yb  Yb3  1  0.50000012  0.49999997  -0.00000007  1
  Eu  Eu4  1  0.91565613  0.24999989  -0.00247739  1
  Eu  Eu5  1  0.41565635  0.25000006  0.50247699  1
  Eu  Eu6  1  0.58434397  0.75000001  0.49752282  1
  Eu  Eu7  1  0.08434377  0.74999998  1.00247746  1
  S  S8  1  0.79278712  0.62549343  0.79996324  1
  S  S9  1  0.79278643  0.87450668  0.79996296  1
  S  S10  1  0.29278679  0.87450644  0.70003708  1
  S  S11  1  0.70721303  0.37450684  0.29996343  1
  S  S12  1  0.20721339  0.12549359  0.20003711  1
  S  S13  1  0.70721339  0.12549356  0.29996282  1
  S  S14  1  0.29278683  0.62549356  0.70003709  1
  S  S15  1  0.20721282  0.37450673  0.20003687  1
  S  S16  1  0.89579655  0.75000010  0.31582565  1
  S  S17  1  0.39579699  0.75000000  0.18417452  1
  S  S18  1  0.60420294  0.25000016  0.81582521  1
  S  S19  1  0.10420326  0.24999994  0.68417428  1
