# generated using pymatgen
data_YbEuS3
_symmetry_space_group_name_H-M   'P 1'
_cell_length_a   7.90181133
_cell_length_b   8.66028746
_cell_length_c   7.34238100
_cell_angle_alpha   90.00000180
_cell_angle_beta   90.00000873
_cell_angle_gamma   90.00000050
_symmetry_Int_Tables_number   1
_chemical_formula_structural   YbEuS3
_chemical_formula_sum   'Yb4 Eu4 S12'
_cell_volume   502.45350465
_cell_formula_units_Z   4
loop_
 _symmetry_equiv_pos_site_id
 _symmetry_equiv_pos_as_xyz
  1  'x, y, z'
loop_
 _atom_site_type_symbol
 _atom_site_label
 _atom_site_symmetry_multiplicity
 _atom_site_fract_x
 _atom_site_fract_y
 _atom_site_fract_z
 _atom_site_occupancy
  Yb  Yb0  1  0.21303143  0.78456147  0.49371327  1
  Yb  Yb1  1  -0.15008987  0.11564041  0.56147554  1
  Yb  Yb2  1  0.50146686  -0.12638469  -0.13227600  1
  Yb  Yb3  1  0.48968793  0.43397008  0.00582646  1
  Eu  Eu4  1  0.92344072  0.11712272  0.03338253  1
  Eu  Eu5  1  0.29290520  0.27686014  0.58792036  1
  Eu  Eu6  1  0.71267070  0.64529215  0.39772927  1
  Eu  Eu7  1  0.10144399  0.63721850  0.94566530  1
  S  S8  1  0.73105199  0.66311962  0.95866071  1
  S  S9  1  0.82489027  0.79989688  0.74495181  1
  S  S10  1  0.16635686  0.99512201  0.76356864  1
  S  S11  1  0.67674692  0.28652170  0.32075852  1
  S  S12  1  0.18716083  0.32643499  0.21790247  1
  S  S13  1  0.54532988  0.08630711  0.37987843  1
  S  S14  1  0.38942748  0.58075668  0.70860629  1
  S  S15  1  0.06596248  0.50561288  0.34789765  1
  S  S16  1  0.94673192  0.88714207  0.29070168  1
  S  S17  1  0.41632790  0.73595649  0.20020619  1
  S  S18  1  0.61147791  0.17290786  0.83946230  1
  S  S19  1  0.00214949  0.37203751  0.77939215  1
