# generated using pymatgen
data_ZrCuSe3
_symmetry_space_group_name_H-M   'P 1'
_cell_length_a   7.47753138
_cell_length_b   10.22859857
_cell_length_c   6.86490193
_cell_angle_alpha   89.99999998
_cell_angle_beta   90.00000336
_cell_angle_gamma   89.99999841
_symmetry_Int_Tables_number   1
_chemical_formula_structural   ZrCuSe3
_chemical_formula_sum   'Zr4 Cu4 Se12'
_cell_volume   525.05973664
_cell_formula_units_Z   4
loop_
 _symmetry_equiv_pos_site_id
 _symmetry_equiv_pos_as_xyz
  1  'x, y, z'
loop_
 _atom_site_type_symbol
 _atom_site_label
 _atom_site_symmetry_multiplicity
 _atom_site_fract_x
 _atom_site_fract_y
 _atom_site_fract_z
 _atom_site_occupancy
  Zr  Zr0  1  0.01637370  0.52156981  0.48726448  1
  Zr  Zr1  1  -0.00408452  -0.00144605  0.50759850  1
  Zr  Zr2  1  0.49290044  0.00074948  0.02236021  1
  Zr  Zr3  1  0.49721088  0.50146425  -0.00849858  1
  Cu  Cu4  1  0.60039867  0.22576743  0.80412501  1
  Cu  Cu5  1  0.16348020  0.25595165  0.67726007  1
  Cu  Cu6  1  0.82092888  0.76599347  0.35595503  1
  Cu  Cu7  1  0.29537099  0.73473395  0.16610019  1
  Se  Se8  1  0.84731817  0.57569263  0.16773733  1
  Se  Se9  1  0.82542472  0.94622187  0.15807691  1
  Se  Se10  1  0.33168998  0.93079569  0.33702549  1
  Se  Se11  1  0.70343359  0.42467583  0.69927524  1
  Se  Se12  1  0.19269583  0.04808542  0.81374535  1
  Se  Se13  1  0.69894136  0.03701618  0.66637083  1
  Se  Se14  1  0.32647708  0.54491372  0.31067761  1
  Se  Se15  1  0.21910002  0.45565974  0.80416372  1
  Se  Se16  1  0.95744966  0.74987623  0.66973388  1
  Se  Se17  1  0.44513086  0.76009491  0.86148003  1
  Se  Se18  1  0.52989796  0.26430072  0.14483718  1
  Se  Se19  1  0.01608821  0.25098544  0.35403313  1
