# generated using pymatgen
data_ZrCuSe3
_symmetry_space_group_name_H-M   'P 1'
_cell_length_a   7.47753013
_cell_length_b   10.22859845
_cell_length_c   6.86490117
_cell_angle_alpha   90.00000277
_cell_angle_beta   90.00000169
_cell_angle_gamma   89.99999772
_symmetry_Int_Tables_number   1
_chemical_formula_structural   ZrCuSe3
_chemical_formula_sum   'Zr4 Cu4 Se12'
_cell_volume   525.05958450
_cell_formula_units_Z   4
loop_
 _symmetry_equiv_pos_site_id
 _symmetry_equiv_pos_as_xyz
  1  'x, y, z'
loop_
 _atom_site_type_symbol
 _atom_site_label
 _atom_site_symmetry_multiplicity
 _atom_site_fract_x
 _atom_site_fract_y
 _atom_site_fract_z
 _atom_site_occupancy
  Zr  Zr0  1  0.00000259  0.50000008  0.49999947  1
  Zr  Zr1  1  0.00000269  -0.00000140  0.50000020  1
  Zr  Zr2  1  0.50000194  -0.00000097  -0.00000187  1
  Zr  Zr3  1  0.50000240  0.50000036  0.00000034  1
  Cu  Cu4  1  0.68120692  0.25000027  0.83430258  1
  Cu  Cu5  1  0.18120676  0.24999995  0.66569711  1
  Cu  Cu6  1  0.81879347  0.75000001  0.33430322  1
  Cu  Cu7  1  0.31879317  0.75000016  0.16569669  1
  Se  Se8  1  0.81684337  0.54930694  0.17362015  1
  Se  Se9  1  0.81684327  0.95069315  0.17362047  1
  Se  Se10  1  0.31684360  0.95069333  0.32637997  1
  Se  Se11  1  0.68315473  0.45069312  0.67361859  1
  Se  Se12  1  0.18315487  0.04930756  0.82638226  1
  Se  Se13  1  0.68315503  0.04930760  0.67361807  1
  Se  Se14  1  0.31684304  0.54930711  0.32638075  1
  Se  Se15  1  0.18315476  0.45069247  0.82638200  1
  Se  Se16  1  0.97848977  0.75000009  0.62991810  1
  Se  Se17  1  0.47848981  0.75000014  0.87008214  1
  Se  Se18  1  0.52150883  0.24999993  0.12991625  1
  Se  Se19  1  0.02150895  0.25000012  0.37008350  1
