data_Ba4Sn4S12
_symmetry_space_group_name_H-M P2_1/c
_cell_length_a 7.1384
_cell_length_b 7.7710
_cell_length_c 12.0967
_cell_angle_alpha 90.0000
_cell_angle_beta 123.2493
_cell_angle_gamma 90.0000
_symmetry_Int_Tables_number 14
_chemical_formula_structural BaSnS3
_chemical_formula_sum 'Ba4 Sn4 S12'
_cell_volume 566.2260
_cell_formula_units_Z 4
loop_
 _symmetry_equiv_pos_site_id
 _symmetry_equiv_pos_as_xyz
  1  'x, -y-1/2, z-1/2'
  2  '-x, y+1/2, -z+1/2'
  3  '-x, -y, -z'
  4  'x, y, z'
loop_
_atom_site_type_symbol
_atom_site_label
_atom_site_symmetry_multiplicity
_atom_site_fract_x
_atom_site_fract_y
_atom_site_fract_z
_atom_site_occupancy
Ba Ba0 4 0.2900 0.0899 0.7523 1
Sn Sn1 4 0.1603 0.6659 0.5852 1
S S2 4 0.0849 0.5522 0.8223 1
S S3 4 0.2204 0.6910 0.0565 1
S S4 4 0.3871 0.1165 0.0587 1

