data_Ce4Cd4S12
_symmetry_space_group_name_H-M Pnma
_cell_length_a 7.3754
_cell_length_b 9.6452
_cell_length_c 6.6449
_cell_angle_alpha 90.0000
_cell_angle_beta 90.0000
_cell_angle_gamma 90.0000
_symmetry_Int_Tables_number 62
_chemical_formula_structural CeCdS3
_chemical_formula_sum 'Ce4 Cd4 S12'
_cell_volume 476.1998
_cell_formula_units_Z 4
loop_
 _symmetry_equiv_pos_site_id
 _symmetry_equiv_pos_as_xyz
  1  '-x, y+1/2, -z'
  2  '-x, -y, -z'
  3  '-x+1/2, -y, z+1/2'
  4  'x+1/2, -y+1/2, -z+1/2'
  5  'x, y, z'
  6  'x-1/2, y, -z-1/2'
  7  '-x-1/2, y-1/2, z-1/2'
  8  'x, -y-1/2, z'
loop_
_atom_site_type_symbol
_atom_site_label
_atom_site_symmetry_multiplicity
_atom_site_fract_x
_atom_site_fract_y
_atom_site_fract_z
_atom_site_occupancy
Ce Ce0 4 0.0994 0.2500 0.9695 1
Cd Cd1 4 0.0000 0.0000 0.5000 1
S S2 8 0.1862 0.5624 0.1918 1
S S3 4 0.0326 0.7500 0.6212 1

