data_Ce4Cu4Se12
_symmetry_space_group_name_H-M Pnma
_cell_length_a 8.1956
_cell_length_b 4.0192
_cell_length_c 13.9955
_cell_angle_alpha 90.0000
_cell_angle_beta 90.0000
_cell_angle_gamma 90.0000
_symmetry_Int_Tables_number 62
_chemical_formula_structural CeCuSe3
_chemical_formula_sum 'Ce4 Cu4 Se12'
_cell_volume 455.6437
_cell_formula_units_Z 4
loop_
 _symmetry_equiv_pos_site_id
 _symmetry_equiv_pos_as_xyz
  1  '-x, y+1/2, -z'
  2  '-x, -y, -z'
  3  '-x+1/2, -y, z+1/2'
  4  'x+1/2, -y+1/2, -z+1/2'
  5  'x, y, z'
  6  'x-1/2, y, -z-1/2'
  7  '-x-1/2, y-1/2, z-1/2'
  8  'x, -y-1/2, z'
loop_
_atom_site_type_symbol
_atom_site_label
_atom_site_symmetry_multiplicity
_atom_site_fract_x
_atom_site_fract_y
_atom_site_fract_z
_atom_site_occupancy
Ce Ce0 4 0.0976 0.7500 0.8261 1
Cu Cu1 4 0.1703 0.2500 0.5540 1
Se Se2 4 0.0051 0.7500 0.3994 1
Se Se3 4 0.1535 0.2500 0.9875 1
Se Se4 4 0.1815 0.7500 0.1834 1

