data_Co4Ni4Se12
_symmetry_space_group_name_H-M C2/m
_cell_length_a 11.1504
_cell_length_b 3.5022
_cell_length_c 10.1539
_cell_angle_alpha 90.0000
_cell_angle_beta 115.1561
_cell_angle_gamma 90.0000
_symmetry_Int_Tables_number 12
_chemical_formula_structural CoNiSe3
_chemical_formula_sum 'Co4 Ni4 Se12'
_cell_volume 356.3734
_cell_formula_units_Z 4
loop_
 _symmetry_equiv_pos_site_id
 _symmetry_equiv_pos_as_xyz
  1  'x, -y, z'
  2  'x+1/2, y+1/2, z'
  3  '-x, y, -z'
  4  '-x, -y, -z'
  5  'x, y, z'
  6  '-x+1/2, y+1/2, -z'
  7  '-x+1/2, -y+1/2, -z'
  8  'x+1/2, -y+1/2, z'
loop_
_atom_site_type_symbol
_atom_site_label
_atom_site_symmetry_multiplicity
_atom_site_fract_x
_atom_site_fract_y
_atom_site_fract_z
_atom_site_occupancy
Co Co0 4 0.1719 0.5000 0.3359 1
Ni Ni1 4 0.0361 0.0000 0.8118 1
Se Se2 4 0.0110 0.5000 0.3309 1
Se Se3 4 0.1631 0.0000 0.1147 1
Se Se4 4 0.2187 0.5000 0.6205 1

