data_Cr4Fe4S12
_symmetry_space_group_name_H-M Pnma
_cell_length_a 9.0204
_cell_length_b 3.3719
_cell_length_c 10.8805
_cell_angle_alpha 90.0000
_cell_angle_beta 90.0000
_cell_angle_gamma 90.0000
_symmetry_Int_Tables_number 62
_chemical_formula_structural CrFeS3
_chemical_formula_sum 'Cr4 Fe4 S12'
_cell_volume 326.2123
_cell_formula_units_Z 4
loop_
 _symmetry_equiv_pos_site_id
 _symmetry_equiv_pos_as_xyz
  1  '-x, y+1/2, -z'
  2  '-x, -y, -z'
  3  '-x+1/2, -y, z+1/2'
  4  'x+1/2, -y+1/2, -z+1/2'
  5  'x, y, z'
  6  'x-1/2, y, -z-1/2'
  7  '-x-1/2, y-1/2, z-1/2'
  8  'x, -y-1/2, z'
loop_
_atom_site_type_symbol
_atom_site_label
_atom_site_symmetry_multiplicity
_atom_site_fract_x
_atom_site_fract_y
_atom_site_fract_z
_atom_site_occupancy
Cr Cr0 4 0.0492 0.2500 0.1485 1
Fe Fe1 4 0.1467 0.7500 0.4552 1
S S2 4 0.0194 0.2500 0.3825 1
S S3 4 0.1922 0.7500 0.0148 1
S S4 4 0.2383 0.2500 0.7021 1

