data_Cr4Ni4S12
_symmetry_space_group_name_H-M Pnma
_cell_length_a 8.8312
_cell_length_b 3.2425
_cell_length_c 11.6035
_cell_angle_alpha 90.0000
_cell_angle_beta 90.0000
_cell_angle_gamma 90.0000
_symmetry_Int_Tables_number 62
_chemical_formula_structural CrNiS3
_chemical_formula_sum 'Cr4 Ni4 S12'
_cell_volume 335.1023
_cell_formula_units_Z 4
loop_
 _symmetry_equiv_pos_site_id
 _symmetry_equiv_pos_as_xyz
  1  '-x, y+1/2, -z'
  2  '-x, -y, -z'
  3  '-x+1/2, -y, z+1/2'
  4  'x+1/2, -y+1/2, -z+1/2'
  5  'x, y, z'
  6  'x-1/2, y, -z-1/2'
  7  '-x-1/2, y-1/2, z-1/2'
  8  'x, -y-1/2, z'
loop_
_atom_site_type_symbol
_atom_site_label
_atom_site_symmetry_multiplicity
_atom_site_fract_x
_atom_site_fract_y
_atom_site_fract_z
_atom_site_occupancy
Cr Cr0 4 0.0599 0.2500 0.3420 1
Ni Ni1 4 0.1653 0.7500 0.0416 1
S S2 4 0.0145 0.2500 0.1169 1
S S3 4 0.1555 0.7500 0.4934 1
S S4 4 0.2103 0.2500 0.7941 1

