data_Eu4Dy4S12
_symmetry_space_group_name_H-M Pnma
_cell_length_a 7.3714
_cell_length_b 9.8740
_cell_length_c 7.0191
_cell_angle_alpha 90.0000
_cell_angle_beta 90.0000
_cell_angle_gamma 90.0000
_symmetry_Int_Tables_number 62
_chemical_formula_structural EuDyS3
_chemical_formula_sum 'Eu4 Dy4 S12'
_cell_volume 499.6822
_cell_formula_units_Z 4
loop_
 _symmetry_equiv_pos_site_id
 _symmetry_equiv_pos_as_xyz
  1  '-x, y+1/2, -z'
  2  '-x, -y, -z'
  3  '-x+1/2, -y, z+1/2'
  4  'x+1/2, -y+1/2, -z+1/2'
  5  'x, y, z'
  6  'x-1/2, y, -z-1/2'
  7  '-x-1/2, y-1/2, z-1/2'
  8  'x, -y-1/2, z'
loop_
_atom_site_type_symbol
_atom_site_label
_atom_site_symmetry_multiplicity
_atom_site_fract_x
_atom_site_fract_y
_atom_site_fract_z
_atom_site_occupancy
Eu Eu0 4 0.0754 0.7500 0.4799 1
Dy Dy1 4 0.0000 0.0000 0.0000 1
S S2 8 0.2008 0.0905 0.6986 1
S S3 4 0.0884 0.2500 0.1730 1

