data_Eu4Y4S12
_symmetry_space_group_name_H-M Pnma
_cell_length_a 7.4500
_cell_length_b 9.9216
_cell_length_c 7.0802
_cell_angle_alpha 90.0000
_cell_angle_beta 90.0000
_cell_angle_gamma 90.0000
_symmetry_Int_Tables_number 62
_chemical_formula_structural EuYS3
_chemical_formula_sum 'Eu4 Y4 S12'
_cell_volume 516.2389
_cell_formula_units_Z 4
loop_
 _symmetry_equiv_pos_site_id
 _symmetry_equiv_pos_as_xyz
  1  '-x, y+1/2, -z'
  2  '-x, -y, -z'
  3  '-x+1/2, -y, z+1/2'
  4  'x+1/2, -y+1/2, -z+1/2'
  5  'x, y, z'
  6  'x-1/2, y, -z-1/2'
  7  '-x-1/2, y-1/2, z-1/2'
  8  'x, -y-1/2, z'
loop_
_atom_site_type_symbol
_atom_site_label
_atom_site_symmetry_multiplicity
_atom_site_fract_x
_atom_site_fract_y
_atom_site_fract_z
_atom_site_occupancy
Eu Eu0 4 0.0947 0.2500 0.0284 1
Y Y1 4 0.0000 0.0000 0.5000 1
S S2 8 0.1903 0.5737 0.8147 1
S S3 4 0.0639 0.7500 0.3499 1

