data_Hf4Mg4S12
_symmetry_space_group_name_H-M C2/m
_cell_length_a 6.0968
_cell_length_b 11.9894
_cell_length_c 6.3840
_cell_angle_alpha 90.0000
_cell_angle_beta 109.4511
_cell_angle_gamma 90.0000
_symmetry_Int_Tables_number 12
_chemical_formula_structural HfMgS3
_chemical_formula_sum 'Hf4 Mg4 S12'
_cell_volume 433.7209
_cell_formula_units_Z 4
loop_
 _symmetry_equiv_pos_site_id
 _symmetry_equiv_pos_as_xyz
  1  'x, -y, z'
  2  'x+1/2, y+1/2, z'
  3  '-x, y, -z'
  4  '-x, -y, -z'
  5  'x, y, z'
  6  '-x+1/2, y+1/2, -z'
  7  '-x+1/2, -y+1/2, -z'
  8  'x+1/2, -y+1/2, z'
loop_
_atom_site_type_symbol
_atom_site_label
_atom_site_symmetry_multiplicity
_atom_site_fract_x
_atom_site_fract_y
_atom_site_fract_z
_atom_site_occupancy
Hf Hf0 4 0.0000 0.3326 0.0000 1
Mg Mg1 4 0.0000 0.1651 0.5000 1
S S2 8 0.2453 0.1753 0.2482 1
S S3 4 0.2491 0.5000 0.2415 1

