data_In4Bi4S12
_symmetry_space_group_name_H-M P2_1/m
_cell_length_a 4.4744
_cell_length_b 14.3506
_cell_length_c 7.7914
_cell_angle_alpha 90.0000
_cell_angle_beta 90.9849
_cell_angle_gamma 90.0000
_symmetry_Int_Tables_number 11
_chemical_formula_structural InBiS3
_chemical_formula_sum 'In4 Bi4 S12'
_cell_volume 503.4206
_cell_formula_units_Z 4
loop_
 _symmetry_equiv_pos_site_id
 _symmetry_equiv_pos_as_xyz
  1  'x, -y-1/2, z'
  2  '-x, y+1/2, -z'
  3  '-x, -y, -z'
  4  'x, y, z'
loop_
_atom_site_type_symbol
_atom_site_label
_atom_site_symmetry_multiplicity
_atom_site_fract_x
_atom_site_fract_y
_atom_site_fract_z
_atom_site_occupancy
In In0 2 0.0000 0.0000 0.0000 1
In In1 2 0.5000 0.0000 0.5000 1
Bi Bi2 2 0.0081 0.2500 0.6465 1
Bi Bi3 2 0.5000 0.2500 0.1436 1
S S4 4 0.2187 0.0816 0.7058 1
S S5 4 0.2443 0.0842 0.2434 1
S S6 2 0.2541 0.7500 0.5698 1
S S7 2 0.2617 0.7500 0.0677 1

