data_La4In4S12
_symmetry_space_group_name_H-M Pnma
_cell_length_a 8.2338
_cell_length_b 4.0230
_cell_length_c 14.2376
_cell_angle_alpha 90.0000
_cell_angle_beta 90.0000
_cell_angle_gamma 90.0000
_symmetry_Int_Tables_number 62
_chemical_formula_structural LaInS3
_chemical_formula_sum 'La4 In4 S12'
_cell_volume 469.7815
_cell_formula_units_Z 4
loop_
 _symmetry_equiv_pos_site_id
 _symmetry_equiv_pos_as_xyz
  1  '-x, y+1/2, -z'
  2  '-x, -y, -z'
  3  '-x+1/2, -y, z+1/2'
  4  'x+1/2, -y+1/2, -z+1/2'
  5  'x, y, z'
  6  'x-1/2, y, -z-1/2'
  7  '-x-1/2, y-1/2, z-1/2'
  8  'x, -y-1/2, z'
loop_
_atom_site_type_symbol
_atom_site_label
_atom_site_symmetry_multiplicity
_atom_site_fract_x
_atom_site_fract_y
_atom_site_fract_z
_atom_site_occupancy
La La0 4 0.0989 0.2500 0.6709 1
In In1 4 0.1616 0.7500 0.9421 1
S S2 4 0.0228 0.7500 0.1161 1
S S3 4 0.1513 0.7500 0.5042 1
S S4 4 0.1945 0.2500 0.2890 1

