data_La4Tl4S12
_symmetry_space_group_name_H-M Pnma
_cell_length_a 8.3928
_cell_length_b 4.2766
_cell_length_c 15.4908
_cell_angle_alpha 90.0000
_cell_angle_beta 90.0000
_cell_angle_gamma 90.0000
_symmetry_Int_Tables_number 62
_chemical_formula_structural LaTlS3
_chemical_formula_sum 'La4 Tl4 S12'
_cell_volume 552.1811
_cell_formula_units_Z 4
loop_
 _symmetry_equiv_pos_site_id
 _symmetry_equiv_pos_as_xyz
  1  '-x, y+1/2, -z'
  2  '-x, -y, -z'
  3  '-x+1/2, -y, z+1/2'
  4  'x+1/2, -y+1/2, -z+1/2'
  5  'x, y, z'
  6  'x-1/2, y, -z-1/2'
  7  '-x-1/2, y-1/2, z-1/2'
  8  'x, -y-1/2, z'
loop_
_atom_site_type_symbol
_atom_site_label
_atom_site_symmetry_multiplicity
_atom_site_fract_x
_atom_site_fract_y
_atom_site_fract_z
_atom_site_occupancy
La La0 4 0.1454 0.7500 0.1392 1
Tl Tl1 4 0.0732 0.2500 0.3224 1
S S2 4 0.0363 0.7500 0.7909 1
S S3 4 0.1547 0.7500 0.9767 1
S S4 4 0.2022 0.2500 0.6230 1

