data_Lu4Bi4Se12
_symmetry_space_group_name_H-M Pnma
_cell_length_a 11.3897
_cell_length_b 4.0088
_cell_length_c 10.9021
_cell_angle_alpha 90.0000
_cell_angle_beta 90.0000
_cell_angle_gamma 90.0000
_symmetry_Int_Tables_number 62
_chemical_formula_structural LuBiSe3
_chemical_formula_sum 'Lu4 Bi4 Se12'
_cell_volume 491.1338
_cell_formula_units_Z 4
loop_
 _symmetry_equiv_pos_site_id
 _symmetry_equiv_pos_as_xyz
  1  '-x, y+1/2, -z'
  2  '-x, -y, -z'
  3  '-x+1/2, -y, z+1/2'
  4  'x+1/2, -y+1/2, -z+1/2'
  5  'x, y, z'
  6  'x-1/2, y, -z-1/2'
  7  '-x-1/2, y-1/2, z-1/2'
  8  'x, -y-1/2, z'
loop_
_atom_site_type_symbol
_atom_site_label
_atom_site_symmetry_multiplicity
_atom_site_fract_x
_atom_site_fract_y
_atom_site_fract_z
_atom_site_occupancy
Lu Lu0 4 0.0060 0.2500 0.8267 1
Bi Bi1 4 0.1801 0.7500 0.5107 1
Se Se2 4 0.0401 0.2500 0.3422 1
Se Se3 4 0.1164 0.7500 0.9449 1
Se Se4 4 0.2182 0.2500 0.7017 1

