data_Mg4Zr4S12
_symmetry_space_group_name_H-M C2/m
_cell_length_a 6.3913
_cell_length_b 11.5778
_cell_length_c 6.8740
_cell_angle_alpha 90.0000
_cell_angle_beta 109.5540
_cell_angle_gamma 90.0000
_symmetry_Int_Tables_number 12
_chemical_formula_structural MgZrS3
_chemical_formula_sum 'Mg4 Zr4 S12'
_cell_volume 474.7169
_cell_formula_units_Z 4
loop_
 _symmetry_equiv_pos_site_id
 _symmetry_equiv_pos_as_xyz
  1  'x, -y, z'
  2  'x+1/2, y+1/2, z'
  3  '-x, y, -z'
  4  '-x, -y, -z'
  5  'x, y, z'
  6  '-x+1/2, y+1/2, -z'
  7  '-x+1/2, -y+1/2, -z'
  8  'x+1/2, -y+1/2, z'
loop_
_atom_site_type_symbol
_atom_site_label
_atom_site_symmetry_multiplicity
_atom_site_fract_x
_atom_site_fract_y
_atom_site_fract_z
_atom_site_occupancy
Mg Mg0 4 0.0000 0.3333 0.0000 1
Zr Zr1 4 0.0769 0.0000 0.2704 1
S S2 8 0.2499 0.1685 0.2385 1
S S3 4 0.2459 0.5000 0.2366 1

