data_Mn4Fe4Se12
_symmetry_space_group_name_H-M C2/m
_cell_length_a 13.0927
_cell_length_b 3.3923
_cell_length_c 8.2952
_cell_angle_alpha 90.0000
_cell_angle_beta 106.3943
_cell_angle_gamma 90.0000
_symmetry_Int_Tables_number 12
_chemical_formula_structural MnFeSe3
_chemical_formula_sum 'Mn4 Fe4 Se12'
_cell_volume 351.0478
_cell_formula_units_Z 4
loop_
 _symmetry_equiv_pos_site_id
 _symmetry_equiv_pos_as_xyz
  1  'x, -y, z'
  2  'x+1/2, y+1/2, z'
  3  '-x, y, -z'
  4  '-x, -y, -z'
  5  'x, y, z'
  6  '-x+1/2, y+1/2, -z'
  7  '-x+1/2, -y+1/2, -z'
  8  'x+1/2, -y+1/2, z'
loop_
_atom_site_type_symbol
_atom_site_label
_atom_site_symmetry_multiplicity
_atom_site_fract_x
_atom_site_fract_y
_atom_site_fract_z
_atom_site_occupancy
Mn Mn0 4 0.0869 0.0000 0.3117 1
Fe Fe1 4 0.1132 0.5000 0.0410 1
Se Se2 4 0.0167 0.5000 0.7898 1
Se Se3 4 0.1534 0.0000 0.5560 1
Se Se4 4 0.2338 0.5000 0.1669 1

