data_Mn4Ga4Se12
_symmetry_space_group_name_H-M Pnma
_cell_length_a 10.2196
_cell_length_b 3.8438
_cell_length_c 12.9640
_cell_angle_alpha 90.0000
_cell_angle_beta 90.0000
_cell_angle_gamma 90.0000
_symmetry_Int_Tables_number 62
_chemical_formula_structural MnGaSe3
_chemical_formula_sum 'Mn4 Ga4 Se12'
_cell_volume 507.7969
_cell_formula_units_Z 4
loop_
 _symmetry_equiv_pos_site_id
 _symmetry_equiv_pos_as_xyz
  1  '-x, y+1/2, -z'
  2  '-x, -y, -z'
  3  '-x+1/2, -y, z+1/2'
  4  'x+1/2, -y+1/2, -z+1/2'
  5  'x, y, z'
  6  'x-1/2, y, -z-1/2'
  7  '-x-1/2, y-1/2, z-1/2'
  8  'x, -y-1/2, z'
loop_
_atom_site_type_symbol
_atom_site_label
_atom_site_symmetry_multiplicity
_atom_site_fract_x
_atom_site_fract_y
_atom_site_fract_z
_atom_site_occupancy
Mn Mn0 4 0.0968 0.7500 0.3992 1
Ga Ga1 4 0.2319 0.2500 0.2017 1
Se Se2 4 0.0765 0.7500 0.5907 1
Se Se3 4 0.0868 0.7500 0.1927 1
Se Se4 4 0.2469 0.2500 0.8986 1

