data_Nb4Zn4Se12
_symmetry_space_group_name_H-M C2/m
_cell_length_a 13.1864
_cell_length_b 3.5074
_cell_length_c 10.8019
_cell_angle_alpha 90.0000
_cell_angle_beta 117.5443
_cell_angle_gamma 90.0000
_symmetry_Int_Tables_number 12
_chemical_formula_structural NbZnSe3
_chemical_formula_sum 'Nb4 Zn4 Se12'
_cell_volume 448.6746
_cell_formula_units_Z 4
loop_
 _symmetry_equiv_pos_site_id
 _symmetry_equiv_pos_as_xyz
  1  'x, -y, z'
  2  'x+1/2, y+1/2, z'
  3  '-x, y, -z'
  4  '-x, -y, -z'
  5  'x, y, z'
  6  '-x+1/2, y+1/2, -z'
  7  '-x+1/2, -y+1/2, -z'
  8  'x+1/2, -y+1/2, z'
loop_
_atom_site_type_symbol
_atom_site_label
_atom_site_symmetry_multiplicity
_atom_site_fract_x
_atom_site_fract_y
_atom_site_fract_z
_atom_site_occupancy
Nb Nb0 4 0.1878 0.5000 0.9018 1
Zn Zn1 4 0.0086 0.0000 0.3204 1
Se Se2 4 0.0171 0.5000 0.1781 1
Se Se3 4 0.1648 0.0000 0.6195 1
Se Se4 4 0.1882 0.0000 0.0680 1

