data_Nb4Zn4S12
_symmetry_space_group_name_H-M C2/m
_cell_length_a 12.9975
_cell_length_b 3.3588
_cell_length_c 10.0672
_cell_angle_alpha 90.0000
_cell_angle_beta 120.3579
_cell_angle_gamma 90.0000
_symmetry_Int_Tables_number 12
_chemical_formula_structural NbZnS3
_chemical_formula_sum 'Nb4 Zn4 S12'
_cell_volume 381.8141
_cell_formula_units_Z 4
loop_
 _symmetry_equiv_pos_site_id
 _symmetry_equiv_pos_as_xyz
  1  'x, -y, z'
  2  'x+1/2, y+1/2, z'
  3  '-x, y, -z'
  4  '-x, -y, -z'
  5  'x, y, z'
  6  '-x+1/2, y+1/2, -z'
  7  '-x+1/2, -y+1/2, -z'
  8  'x+1/2, -y+1/2, z'
loop_
_atom_site_type_symbol
_atom_site_label
_atom_site_symmetry_multiplicity
_atom_site_fract_x
_atom_site_fract_y
_atom_site_fract_z
_atom_site_occupancy
Nb Nb0 4 0.1775 0.5000 0.2895 1
Zn Zn1 4 0.0266 0.0000 0.7957 1
S S2 4 0.0038 0.5000 0.2420 1
S S3 4 0.1696 0.0000 0.0436 1
S S4 4 0.2142 0.0000 0.6268 1

