data_Nd4Hf4S12
_symmetry_space_group_name_H-M Pnma
_cell_length_a 8.3150
_cell_length_b 3.7552
_cell_length_c 13.9953
_cell_angle_alpha 90.0000
_cell_angle_beta 90.0000
_cell_angle_gamma 90.0000
_symmetry_Int_Tables_number 62
_chemical_formula_structural NdHfS3
_chemical_formula_sum 'Nd4 Hf4 S12'
_cell_volume 435.6437
_cell_formula_units_Z 4
loop_
 _symmetry_equiv_pos_site_id
 _symmetry_equiv_pos_as_xyz
  1  '-x, y+1/2, -z'
  2  '-x, -y, -z'
  3  '-x+1/2, -y, z+1/2'
  4  'x+1/2, -y+1/2, -z+1/2'
  5  'x, y, z'
  6  'x-1/2, y, -z-1/2'
  7  '-x-1/2, y-1/2, z-1/2'
  8  'x, -y-1/2, z'
loop_
_atom_site_type_symbol
_atom_site_label
_atom_site_symmetry_multiplicity
_atom_site_fract_x
_atom_site_fract_y
_atom_site_fract_z
_atom_site_occupancy
Nd Nd0 4 0.0678 0.7500 0.8271 1
Hf Hf1 4 0.1623 0.2500 0.5449 1
S S2 4 0.0151 0.2500 0.3895 1
S S3 4 0.1559 0.2500 0.9839 1
S S4 4 0.2015 0.7500 0.2154 1

