data_Pr4Eu4S12
_symmetry_space_group_name_H-M Pnma
_cell_length_a 7.6596
_cell_length_b 4.1756
_cell_length_c 15.5861
_cell_angle_alpha 90.0000
_cell_angle_beta 90.0000
_cell_angle_gamma 90.0000
_symmetry_Int_Tables_number 62
_chemical_formula_structural PrEuS3
_chemical_formula_sum 'Pr4 Eu4 S12'
_cell_volume 497.8087
_cell_formula_units_Z 4
loop_
 _symmetry_equiv_pos_site_id
 _symmetry_equiv_pos_as_xyz
  1  '-x, y+1/2, -z'
  2  '-x, -y, -z'
  3  '-x+1/2, -y, z+1/2'
  4  'x+1/2, -y+1/2, -z+1/2'
  5  'x, y, z'
  6  'x-1/2, y, -z-1/2'
  7  '-x-1/2, y-1/2, z-1/2'
  8  'x, -y-1/2, z'
loop_
_atom_site_type_symbol
_atom_site_label
_atom_site_symmetry_multiplicity
_atom_site_fract_x
_atom_site_fract_y
_atom_site_fract_z
_atom_site_occupancy
Pr Pr0 4 0.1602 0.2500 0.2046 1
Eu Eu1 4 0.2398 0.7500 0.4573 1
S S2 4 0.0293 0.2500 0.3910 1
S S3 4 0.1199 0.7500 0.0603 1
S S4 4 0.1458 0.2500 0.7837 1

