data_Pr4Mg4S12
_symmetry_space_group_name_H-M C2/m
_cell_length_a 7.6538
_cell_length_b 11.4306
_cell_length_c 6.8376
_cell_angle_alpha 90.0000
_cell_angle_beta 116.4892
_cell_angle_gamma 90.0000
_symmetry_Int_Tables_number 12
_chemical_formula_structural PrMgS3
_chemical_formula_sum 'Pr4 Mg4 S12'
_cell_volume 538.1156
_cell_formula_units_Z 4
loop_
 _symmetry_equiv_pos_site_id
 _symmetry_equiv_pos_as_xyz
  1  'x, -y, z'
  2  'x+1/2, y+1/2, z'
  3  '-x, y, -z'
  4  '-x, -y, -z'
  5  'x, y, z'
  6  '-x+1/2, y+1/2, -z'
  7  '-x+1/2, -y+1/2, -z'
  8  'x+1/2, -y+1/2, z'
loop_
_atom_site_type_symbol
_atom_site_label
_atom_site_symmetry_multiplicity
_atom_site_fract_x
_atom_site_fract_y
_atom_site_fract_z
_atom_site_occupancy
Pr Pr0 4 0.1948 0.0000 0.3098 1
Mg Mg1 4 0.0000 0.3374 0.0000 1
S S2 8 0.0783 0.1724 0.7881 1
S S3 4 0.0738 0.5000 0.2525 1

