data_Sm4In4S12
_symmetry_space_group_name_H-M Cmcm
_cell_length_a 3.8997
_cell_length_b 12.3588
_cell_length_c 9.9864
_cell_angle_alpha 90.0000
_cell_angle_beta 90.0000
_cell_angle_gamma 90.0000
_symmetry_Int_Tables_number 63
_chemical_formula_structural SmInS3
_chemical_formula_sum 'Sm4 In4 S12'
_cell_volume 481.1081
_cell_formula_units_Z 4
loop_
 _symmetry_equiv_pos_site_id
 _symmetry_equiv_pos_as_xyz
  1  'x+1/2, -y+1/2, -z'
  2  '-x+1/2, y+1/2, -z+1/2'
  3  '-x+1/2, -y+1/2, -z'
  4  '-x, y, -z+1/2'
  5  '-x, -y, -z'
  6  '-x, -y, z+1/2'
  7  'x, -y, -z'
  8  'x, y, z'
  9  'x, y, -z-1/2'
  10  '-x, y, z'
  11  'x, -y, z-1/2'
  12  'x+1/2, y+1/2, z'
  13  '-x+1/2, -y+1/2, z+1/2'
  14  'x+1/2, y+1/2, -z-1/2'
  15  '-x+1/2, y+1/2, z'
  16  'x+1/2, -y+1/2, z-1/2'
loop_
_atom_site_type_symbol
_atom_site_label
_atom_site_symmetry_multiplicity
_atom_site_fract_x
_atom_site_fract_y
_atom_site_fract_z
_atom_site_occupancy
Sm Sm0 4 0.0000 0.2469 0.7500 1
In In1 4 0.0000 0.5000 0.0000 1
S S2 8 0.0000 0.1456 0.0504 1
S S3 4 0.0000 0.4094 0.2500 1

