data_Sm4Lu4Se12
_symmetry_space_group_name_H-M P2_1/m
_cell_length_a 11.5451
_cell_length_b 4.0988
_cell_length_c 11.8375
_cell_angle_alpha 90.0000
_cell_angle_beta 108.8759
_cell_angle_gamma 90.0000
_symmetry_Int_Tables_number 11
_chemical_formula_structural SmLuSe3
_chemical_formula_sum 'Sm4 Lu4 Se12'
_cell_volume 530.0354
_cell_formula_units_Z 4
loop_
 _symmetry_equiv_pos_site_id
 _symmetry_equiv_pos_as_xyz
  1  'x, -y-1/2, z'
  2  '-x, y+1/2, -z'
  3  '-x, -y, -z'
  4  'x, y, z'
loop_
_atom_site_type_symbol
_atom_site_label
_atom_site_symmetry_multiplicity
_atom_site_fract_x
_atom_site_fract_y
_atom_site_fract_z
_atom_site_occupancy
Sm Sm0 2 0.0489 0.7500 0.6971 1
Sm Sm1 2 0.3189 0.2500 0.4972 1
Lu Lu2 2 0.1579 0.7500 0.0822 1
Lu Lu3 2 0.4378 0.7500 0.8368 1
Se Se4 2 0.0821 0.2500 0.9059 1
Se Se5 2 0.1116 0.7500 0.4639 1
Se Se6 2 0.1906 0.2500 0.2432 1
Se Se7 2 0.2626 0.2500 0.7314 1
Se Se8 2 0.3942 0.7500 0.0605 1
Se Se9 2 0.4855 0.7500 0.6233 1

