data_Sm4Tm4S12
_symmetry_space_group_name_H-M Cmcm
_cell_length_a 3.8312
_cell_length_b 12.4952
_cell_length_c 9.4135
_cell_angle_alpha 90.0000
_cell_angle_beta 90.0000
_cell_angle_gamma 90.0000
_symmetry_Int_Tables_number 63
_chemical_formula_structural SmTmS3
_chemical_formula_sum 'Sm4 Tm4 S12'
_cell_volume 455.7029
_cell_formula_units_Z 4
loop_
 _symmetry_equiv_pos_site_id
 _symmetry_equiv_pos_as_xyz
  1  'x+1/2, -y+1/2, -z'
  2  '-x+1/2, y+1/2, -z+1/2'
  3  '-x+1/2, -y+1/2, -z'
  4  '-x, y, -z+1/2'
  5  '-x, -y, -z'
  6  '-x, -y, z+1/2'
  7  'x, -y, -z'
  8  'x, y, z'
  9  'x, y, -z-1/2'
  10  '-x, y, z'
  11  'x, -y, z-1/2'
  12  'x+1/2, y+1/2, z'
  13  '-x+1/2, -y+1/2, z+1/2'
  14  'x+1/2, y+1/2, -z-1/2'
  15  '-x+1/2, y+1/2, z'
  16  'x+1/2, -y+1/2, z-1/2'
loop_
_atom_site_type_symbol
_atom_site_label
_atom_site_symmetry_multiplicity
_atom_site_fract_x
_atom_site_fract_y
_atom_site_fract_z
_atom_site_occupancy
Sm Sm0 4 0.0000 0.2480 0.7500 1
Tm Tm1 4 0.0000 0.5000 0.0000 1
S S2 8 0.0000 0.1423 0.0665 1
S S3 4 0.0000 0.4093 0.2500 1

