data_Sm4Y4S12
_symmetry_space_group_name_H-M Pnma
_cell_length_a 7.4295
_cell_length_b 3.9457
_cell_length_c 15.3067
_cell_angle_alpha 90.0000
_cell_angle_beta 90.0000
_cell_angle_gamma 90.0000
_symmetry_Int_Tables_number 62
_chemical_formula_structural SmYS3
_chemical_formula_sum 'Sm4 Y4 S12'
_cell_volume 451.1482
_cell_formula_units_Z 4
loop_
 _symmetry_equiv_pos_site_id
 _symmetry_equiv_pos_as_xyz
  1  '-x, y+1/2, -z'
  2  '-x, -y, -z'
  3  '-x+1/2, -y, z+1/2'
  4  'x+1/2, -y+1/2, -z+1/2'
  5  'x, y, z'
  6  'x-1/2, y, -z-1/2'
  7  '-x-1/2, y-1/2, z-1/2'
  8  'x, -y-1/2, z'
loop_
_atom_site_type_symbol
_atom_site_label
_atom_site_symmetry_multiplicity
_atom_site_fract_x
_atom_site_fract_y
_atom_site_fract_z
_atom_site_occupancy
Sm Sm0 4 0.1432 0.2500 0.2038 1
Y Y1 4 0.2325 0.7500 0.4551 1
S S2 4 0.0108 0.2500 0.3924 1
S S3 4 0.1254 0.7500 0.0672 1
S S4 4 0.1489 0.2500 0.7822 1

