data_Sm4Y4Se12
_symmetry_space_group_name_H-M Pnma
_cell_length_a 7.6286
_cell_length_b 4.1756
_cell_length_c 16.4801
_cell_angle_alpha 90.0000
_cell_angle_beta 90.0000
_cell_angle_gamma 90.0000
_symmetry_Int_Tables_number 62
_chemical_formula_structural SmYSe3
_chemical_formula_sum 'Sm4 Y4 Se12'
_cell_volume 522.8067
_cell_formula_units_Z 4
loop_
 _symmetry_equiv_pos_site_id
 _symmetry_equiv_pos_as_xyz
  1  '-x, y+1/2, -z'
  2  '-x, -y, -z'
  3  '-x+1/2, -y, z+1/2'
  4  'x+1/2, -y+1/2, -z+1/2'
  5  'x, y, z'
  6  'x-1/2, y, -z-1/2'
  7  '-x-1/2, y-1/2, z-1/2'
  8  'x, -y-1/2, z'
loop_
_atom_site_type_symbol
_atom_site_label
_atom_site_symmetry_multiplicity
_atom_site_fract_x
_atom_site_fract_y
_atom_site_fract_z
_atom_site_occupancy
Sm Sm0 4 0.1432 0.2500 0.7944 1
Y Y1 4 0.2325 0.7500 0.5381 1
Se Se2 4 0.0107 0.2500 0.6077 1
Se Se3 4 0.1249 0.7500 0.9362 1
Se Se4 4 0.1458 0.2500 0.2187 1

