data_Sn4Ge4Se12
_symmetry_space_group_name_H-M P2_1/c
_cell_length_a 7.9344
_cell_length_b 10.7403
_cell_length_c 7.0927
_cell_angle_alpha 90.0000
_cell_angle_beta 105.2493
_cell_angle_gamma 90.0000
_symmetry_Int_Tables_number 14
_chemical_formula_structural SnGeSe3
_chemical_formula_sum 'Sn4 Ge4 Se12'
_cell_volume 586.2260
_cell_formula_units_Z 4
loop_
 _symmetry_equiv_pos_site_id
 _symmetry_equiv_pos_as_xyz
  1  'x, -y-1/2, z-1/2'
  2  '-x, y+1/2, -z+1/2'
  3  '-x, -y, -z'
  4  'x, y, z'
loop_
_atom_site_type_symbol
_atom_site_label
_atom_site_symmetry_multiplicity
_atom_site_fract_x
_atom_site_fract_y
_atom_site_fract_z
_atom_site_occupancy
Sn Sn0 4 0.1106 0.0817 0.7489 1
Ge Ge1 4 0.3703 0.7178 0.9782 1
Se Se2 4 0.0819 0.6822 0.2629 1
Se Se3 4 0.2404 0.0176 0.1865 1
Se Se4 4 0.4871 0.1665 0.7187 1

