data_Sn4Ge4S12
_symmetry_space_group_name_H-M P2_1/c
_cell_length_a 7.5240
_cell_length_b 10.2910
_cell_length_c 6.8383
_cell_angle_alpha 90.0000
_cell_angle_beta 94.9616
_cell_angle_gamma 90.0000
_symmetry_Int_Tables_number 14
_chemical_formula_structural SnGeS3
_chemical_formula_sum 'Sn4 Ge4 S12'
_cell_volume 524.3738
_cell_formula_units_Z 4
loop_
 _symmetry_equiv_pos_site_id
 _symmetry_equiv_pos_as_xyz
  1  'x, -y-1/2, z-1/2'
  2  '-x, y+1/2, -z+1/2'
  3  '-x, -y, -z'
  4  'x, y, z'
loop_
_atom_site_type_symbol
_atom_site_label
_atom_site_symmetry_multiplicity
_atom_site_fract_x
_atom_site_fract_y
_atom_site_fract_z
_atom_site_occupancy
Sn Sn0 4 0.3147 0.0873 0.7251 1
Ge Ge1 4 0.1886 0.7102 0.5157 1
S S2 4 0.0653 0.1644 0.3246 1
S S3 4 0.2456 0.5345 0.5144 1
S S4 4 0.4408 0.6750 0.9057 1

