data_Sn4Pb4S12
_symmetry_space_group_name_H-M P2_1/c
_cell_length_a 7.7914
_cell_length_b 7.7810
_cell_length_c 8.5892
_cell_angle_alpha 90.0000
_cell_angle_beta 119.9279
_cell_angle_gamma 90.0000
_symmetry_Int_Tables_number 14
_chemical_formula_structural SnPbS3
_chemical_formula_sum 'Sn4 Pb4 S12'
_cell_volume 446.6226
_cell_formula_units_Z 4
loop_
 _symmetry_equiv_pos_site_id
 _symmetry_equiv_pos_as_xyz
  1  'x, -y-1/2, z-1/2'
  2  '-x, y+1/2, -z+1/2'
  3  '-x, -y, -z'
  4  'x, y, z'
loop_
_atom_site_type_symbol
_atom_site_label
_atom_site_symmetry_multiplicity
_atom_site_fract_x
_atom_site_fract_y
_atom_site_fract_z
_atom_site_occupancy
Sn Sn0 4 0.0590 0.1021 0.2718 1
Pb Pb1 4 0.4770 0.0115 0.7458 1
S S2 4 0.0788 0.7282 0.9062 1
S S3 4 0.2280 0.1011 0.9506 1
S S4 4 0.3136 0.5046 0.7578 1

