data_Sn4Rh4S12
_symmetry_space_group_name_H-M Pnma
_cell_length_a 8.6368
_cell_length_b 3.6787
_cell_length_c 12.7829
_cell_angle_alpha 90.0000
_cell_angle_beta 90.0000
_cell_angle_gamma 90.0000
_symmetry_Int_Tables_number 62
_chemical_formula_structural SnRhS3
_chemical_formula_sum 'Sn4 Rh4 S12'
_cell_volume 406.6720
_cell_formula_units_Z 4
loop_
 _symmetry_equiv_pos_site_id
 _symmetry_equiv_pos_as_xyz
  1  '-x, y+1/2, -z'
  2  '-x, -y, -z'
  3  '-x+1/2, -y, z+1/2'
  4  'x+1/2, -y+1/2, -z+1/2'
  5  'x, y, z'
  6  'x-1/2, y, -z-1/2'
  7  '-x-1/2, y-1/2, z-1/2'
  8  'x, -y-1/2, z'
loop_
_atom_site_type_symbol
_atom_site_label
_atom_site_symmetry_multiplicity
_atom_site_fract_x
_atom_site_fract_y
_atom_site_fract_z
_atom_site_occupancy
Sn Sn0 4 0.0043 0.2500 0.6637 1
Rh Rh1 4 0.1668 0.2500 0.0430 1
S S2 4 0.0085 0.7500 0.1008 1
S S3 4 0.1825 0.2500 0.4888 1
S S4 4 0.1879 0.7500 0.7135 1

