data_Ta4Mo4S12
_symmetry_space_group_name_H-M Cmcm
_cell_length_a 3.2468
_cell_length_b 12.8894
_cell_length_c 7.7929
_cell_angle_alpha 90.0000
_cell_angle_beta 90.0000
_cell_angle_gamma 90.0000
_symmetry_Int_Tables_number 63
_chemical_formula_structural TaMoS3
_chemical_formula_sum 'Ta4 Mo4 S12'
_cell_volume 326.6720
_cell_formula_units_Z 4
loop_
 _symmetry_equiv_pos_site_id
 _symmetry_equiv_pos_as_xyz
  1  'x+1/2, -y+1/2, -z'
  2  '-x+1/2, y+1/2, -z+1/2'
  3  '-x+1/2, -y+1/2, -z'
  4  '-x, y, -z+1/2'
  5  '-x, -y, -z'
  6  '-x, -y, z+1/2'
  7  'x, -y, -z'
  8  'x, y, z'
  9  'x, y, -z-1/2'
  10  '-x, y, z'
  11  'x, -y, z-1/2'
  12  'x+1/2, y+1/2, z'
  13  '-x+1/2, -y+1/2, z+1/2'
  14  'x+1/2, y+1/2, -z-1/2'
  15  '-x+1/2, y+1/2, z'
  16  'x+1/2, -y+1/2, z-1/2'
loop_
_atom_site_type_symbol
_atom_site_label
_atom_site_symmetry_multiplicity
_atom_site_fract_x
_atom_site_fract_y
_atom_site_fract_z
_atom_site_occupancy
Ta Ta0 4 0.0000 0.2613 0.2500 1
Mo Mo1 4 0.0000 0.0000 0.0000 1
S S2 8 0.0000 0.3601 0.5568 1
S S3 4 0.0000 0.0906 0.7500 1

