data_Ta4Mo4Se12
_symmetry_space_group_name_H-M C2/m
_cell_length_a 13.3131
_cell_length_b 3.3778
_cell_length_c 11.3435
_cell_angle_alpha 90.0000
_cell_angle_beta 118.5403
_cell_angle_gamma 90.0000
_symmetry_Int_Tables_number 12
_chemical_formula_structural TaMoSe3
_chemical_formula_sum 'Ta4 Mo4 Se12'
_cell_volume 441.9694
_cell_formula_units_Z 4
loop_
 _symmetry_equiv_pos_site_id
 _symmetry_equiv_pos_as_xyz
  1  'x, -y, z'
  2  'x+1/2, y+1/2, z'
  3  '-x, y, -z'
  4  '-x, -y, -z'
  5  'x, y, z'
  6  '-x+1/2, y+1/2, -z'
  7  '-x+1/2, -y+1/2, -z'
  8  'x+1/2, -y+1/2, z'
loop_
_atom_site_type_symbol
_atom_site_label
_atom_site_symmetry_multiplicity
_atom_site_fract_x
_atom_site_fract_y
_atom_site_fract_z
_atom_site_occupancy
Ta Ta0 4 0.1767 0.5000 0.2877 1
Mo Mo1 4 0.0697 0.0000 0.7942 1
Se Se2 4 0.0135 0.5000 0.3095 1
Se Se3 4 0.1594 0.0000 0.0269 1
Se Se4 4 0.2321 0.0000 0.6385 1

