data_Ta4Zn4S12
_symmetry_space_group_name_H-M C2/m
_cell_length_a 13.3897
_cell_length_b 3.2887
_cell_length_c 10.4821
_cell_angle_alpha 90.0000
_cell_angle_beta 122.4763
_cell_angle_gamma 90.0000
_symmetry_Int_Tables_number 12
_chemical_formula_structural TaZnS3
_chemical_formula_sum 'Ta4 Zn4 S12'
_cell_volume 391.3389
_cell_formula_units_Z 4
loop_
 _symmetry_equiv_pos_site_id
 _symmetry_equiv_pos_as_xyz
  1  'x, -y, z'
  2  'x+1/2, y+1/2, z'
  3  '-x, y, -z'
  4  '-x, -y, -z'
  5  'x, y, z'
  6  '-x+1/2, y+1/2, -z'
  7  '-x+1/2, -y+1/2, -z'
  8  'x+1/2, -y+1/2, z'
loop_
_atom_site_type_symbol
_atom_site_label
_atom_site_symmetry_multiplicity
_atom_site_fract_x
_atom_site_fract_y
_atom_site_fract_z
_atom_site_occupancy
Ta Ta0 4 0.1782 0.5000 0.2873 1
Zn Zn1 4 0.0077 0.0000 0.7631 1
S S2 4 0.0130 0.5000 0.2509 1
S S3 4 0.1680 0.0000 0.0410 1
S S4 4 0.1923 0.0000 0.6176 1

