data_Ta4Zn4Se12
_symmetry_space_group_name_H-M Pnma
_cell_length_a 10.1043
_cell_length_b 3.5445
_cell_length_c 12.4992
_cell_angle_alpha 90.0000
_cell_angle_beta 90.0000
_cell_angle_gamma 90.0000
_symmetry_Int_Tables_number 62
_chemical_formula_structural TaZnSe3
_chemical_formula_sum 'Ta4 Zn4 Se12'
_cell_volume 448.9863
_cell_formula_units_Z 4
loop_
 _symmetry_equiv_pos_site_id
 _symmetry_equiv_pos_as_xyz
  1  '-x, y+1/2, -z'
  2  '-x, -y, -z'
  3  '-x+1/2, -y, z+1/2'
  4  'x+1/2, -y+1/2, -z+1/2'
  5  'x, y, z'
  6  'x-1/2, y, -z-1/2'
  7  '-x-1/2, y-1/2, z-1/2'
  8  'x, -y-1/2, z'
loop_
_atom_site_type_symbol
_atom_site_label
_atom_site_symmetry_multiplicity
_atom_site_fract_x
_atom_site_fract_y
_atom_site_fract_z
_atom_site_occupancy
Ta Ta0 4 0.0993 0.7500 0.8711 1
Zn Zn1 4 0.2312 0.2500 0.9750 1
Se Se2 4 0.0726 0.7500 0.0972 1
Se Se3 4 0.0825 0.7500 0.6770 1
Se Se4 4 0.2307 0.7500 0.3249 1

