data_Tb4Bi4S12
_symmetry_space_group_name_H-M P2_1/m
_cell_length_a 11.0108
_cell_length_b 3.9567
_cell_length_c 11.8370
_cell_angle_alpha 90.0000
_cell_angle_beta 90.0877
_cell_angle_gamma 90.0000
_symmetry_Int_Tables_number 11
_chemical_formula_structural TbBiS3
_chemical_formula_sum 'Tb4 Bi4 S12'
_cell_volume 507.9569
_cell_formula_units_Z 4
loop_
 _symmetry_equiv_pos_site_id
 _symmetry_equiv_pos_as_xyz
  1  'x, -y-1/2, z'
  2  '-x, y+1/2, -z'
  3  '-x, -y, -z'
  4  'x, y, z'
loop_
_atom_site_type_symbol
_atom_site_label
_atom_site_symmetry_multiplicity
_atom_site_fract_x
_atom_site_fract_y
_atom_site_fract_z
_atom_site_occupancy
Tb Tb0 2 0.0249 0.2500 0.6606 1
Tb Tb1 2 0.4723 0.7500 0.1596 1
Bi Bi2 2 0.1879 0.7500 0.9990 1
Bi Bi3 2 0.3070 0.2500 0.4158 1
S S4 2 0.0448 0.2500 0.8830 1
S S5 2 0.1053 0.7500 0.4021 1
S S6 2 0.2023 0.2500 0.1721 1
S S7 2 0.2766 0.7500 0.7509 1
S S8 2 0.3562 0.2500 0.9321 1
S S9 2 0.4941 0.2500 0.6218 1

