data_Tb4In4Se12
_symmetry_space_group_name_H-M Cmcm
_cell_length_a 4.0597
_cell_length_b 12.9528
_cell_length_c 9.9867
_cell_angle_alpha 90.0000
_cell_angle_beta 90.0000
_cell_angle_gamma 90.0000
_symmetry_Int_Tables_number 63
_chemical_formula_structural TbInSe3
_chemical_formula_sum 'Tb4 In4 Se12'
_cell_volume 516.1482
_cell_formula_units_Z 4
loop_
 _symmetry_equiv_pos_site_id
 _symmetry_equiv_pos_as_xyz
  1  'x+1/2, -y+1/2, -z'
  2  '-x+1/2, y+1/2, -z+1/2'
  3  '-x+1/2, -y+1/2, -z'
  4  '-x, y, -z+1/2'
  5  '-x, -y, -z'
  6  '-x, -y, z+1/2'
  7  'x, -y, -z'
  8  'x, y, z'
  9  'x, y, -z-1/2'
  10  '-x, y, z'
  11  'x, -y, z-1/2'
  12  'x+1/2, y+1/2, z'
  13  '-x+1/2, -y+1/2, z+1/2'
  14  'x+1/2, y+1/2, -z-1/2'
  15  '-x+1/2, y+1/2, z'
  16  'x+1/2, -y+1/2, z-1/2'
loop_
_atom_site_type_symbol
_atom_site_label
_atom_site_symmetry_multiplicity
_atom_site_fract_x
_atom_site_fract_y
_atom_site_fract_z
_atom_site_occupancy
Tb Tb0 4 0.0000 0.5000 0.0000 1
In In1 4 0.0000 0.2512 0.7500 1
Se Se2 8 0.0000 0.1382 0.0604 1
Se Se3 4 0.0000 0.4164 0.2500 1

