data_Tl4Cu4Se12
_symmetry_space_group_name_H-M Immm
_cell_length_a 7.3988
_cell_length_b 8.0766
_cell_length_c 9.4653
_cell_angle_alpha 90.0000
_cell_angle_beta 90.0000
_cell_angle_gamma 90.0000
_symmetry_Int_Tables_number 71
_chemical_formula_structural TlCuSe3
_chemical_formula_sum 'Tl4 Cu4 Se12'
_cell_volume 563.0181
_cell_formula_units_Z 4
loop_
 _symmetry_equiv_pos_site_id
 _symmetry_equiv_pos_as_xyz
  1  'x+1/2, -y+1/2, -z+1/2'
  2  '-x+1/2, y+1/2, -z+1/2'
  3  '-x+1/2, -y+1/2, -z+1/2'
  4  '-x, y, -z'
  5  '-x, -y, -z'
  6  '-x, -y, z'
  7  'x, -y, -z'
  8  'x, y, z'
  9  'x, y, -z'
  10  '-x, y, z'
  11  'x, -y, z'
  12  'x+1/2, y+1/2, z+1/2'
  13  '-x+1/2, -y+1/2, z+1/2'
  14  'x+1/2, y+1/2, -z+1/2'
  15  '-x+1/2, y+1/2, z+1/2'
  16  'x+1/2, -y+1/2, z+1/2'
loop_
_atom_site_type_symbol
_atom_site_label
_atom_site_symmetry_multiplicity
_atom_site_fract_x
_atom_site_fract_y
_atom_site_fract_z
_atom_site_occupancy
Tl Tl0 4 0.0000 0.2572 0.0000 1
Cu Cu1 4 0.0000 0.0000 0.3522 1
Se Se2 8 0.2435 0.5000 0.2705 1
Se Se3 4 0.0000 0.2365 0.5000 1

