data_V4Cr4Se12
_symmetry_space_group_name_H-M Pnma
_cell_length_a 10.2033
_cell_length_b 3.7854
_cell_length_c 12.5330
_cell_angle_alpha 90.0000
_cell_angle_beta 90.0000
_cell_angle_gamma 90.0000
_symmetry_Int_Tables_number 62
_chemical_formula_structural VCrSe3
_chemical_formula_sum 'V4 Cr4 Se12'
_cell_volume 483.7050
_cell_formula_units_Z 4
loop_
 _symmetry_equiv_pos_site_id
 _symmetry_equiv_pos_as_xyz
  1  '-x, y+1/2, -z'
  2  '-x, -y, -z'
  3  '-x+1/2, -y, z+1/2'
  4  'x+1/2, -y+1/2, -z+1/2'
  5  'x, y, z'
  6  'x-1/2, y, -z-1/2'
  7  '-x-1/2, y-1/2, z-1/2'
  8  'x, -y-1/2, z'
loop_
_atom_site_type_symbol
_atom_site_label
_atom_site_symmetry_multiplicity
_atom_site_fract_x
_atom_site_fract_y
_atom_site_fract_z
_atom_site_occupancy
V V0 4 0.2230 0.7500 0.2085 1
Cr Cr1 4 0.0975 0.2500 0.3908 1
Se Se2 4 0.0772 0.2500 0.5967 1
Se Se3 4 0.0814 0.2500 0.1822 1
Se Se4 4 0.2348 0.2500 0.8993 1

