data_V4Sn4S12
_symmetry_space_group_name_H-M P2_1/c
_cell_length_a 3.5378
_cell_length_b 12.3306
_cell_length_c 10.3767
_cell_angle_alpha 90.0000
_cell_angle_beta 91.2852
_cell_angle_gamma 90.0000
_symmetry_Int_Tables_number 14
_chemical_formula_structural VSnS3
_chemical_formula_sum 'V4 Sn4 S12'
_cell_volume 448.8156
_cell_formula_units_Z 4
loop_
 _symmetry_equiv_pos_site_id
 _symmetry_equiv_pos_as_xyz
  1  'x, -y-1/2, z-1/2'
  2  '-x, y+1/2, -z+1/2'
  3  '-x, -y, -z'
  4  'x, y, z'
loop_
_atom_site_type_symbol
_atom_site_label
_atom_site_symmetry_multiplicity
_atom_site_fract_x
_atom_site_fract_y
_atom_site_fract_z
_atom_site_occupancy
V V0 4 0.1890 0.5907 0.9698 1
Sn Sn1 4 0.2478 0.1212 0.8802 1
S S2 4 0.2288 0.0224 0.3218 1
S S3 4 0.2638 0.7047 0.5025 1
S S4 4 0.2650 0.1181 0.6504 1

