data_Zr4Bi4S12
_symmetry_space_group_name_H-M Pnma
_cell_length_a 9.2310
_cell_length_b 3.7495
_cell_length_c 13.6032
_cell_angle_alpha 90.0000
_cell_angle_beta 90.0000
_cell_angle_gamma 90.0000
_symmetry_Int_Tables_number 62
_chemical_formula_structural ZrBiS3
_chemical_formula_sum 'Zr4 Bi4 S12'
_cell_volume 475.7023
_cell_formula_units_Z 4
loop_
 _symmetry_equiv_pos_site_id
 _symmetry_equiv_pos_as_xyz
  1  '-x, y+1/2, -z'
  2  '-x, -y, -z'
  3  '-x+1/2, -y, z+1/2'
  4  'x+1/2, -y+1/2, -z+1/2'
  5  'x, y, z'
  6  'x-1/2, y, -z-1/2'
  7  '-x-1/2, y-1/2, z-1/2'
  8  'x, -y-1/2, z'
loop_
_atom_site_type_symbol
_atom_site_label
_atom_site_symmetry_multiplicity
_atom_site_fract_x
_atom_site_fract_y
_atom_site_fract_z
_atom_site_occupancy
Zr Zr0 4 0.1599 0.7500 0.0486 1
Bi Bi1 4 0.0053 0.7500 0.6686 1
S S2 4 0.0145 0.7500 0.8944 1
S S3 4 0.1716 0.7500 0.4854 1
S S4 4 0.2303 0.2500 0.7046 1

