data_Ca4U4Se12
_symmetry_space_group_name_H-M Pnma
_cell_length_a 7.8500
_cell_length_b 10.1186
_cell_length_c 7.0091
_cell_angle_alpha 90.0000
_cell_angle_beta 90.0000
_cell_angle_gamma 90.0000
_symmetry_Int_Tables_number 62
_chemical_formula_structural CaUSe3
_chemical_formula_sum 'Ca4 U4 Se12'
_cell_volume 558.3448
_cell_formula_units_Z 4
loop_
 _symmetry_equiv_pos_site_id
 _symmetry_equiv_pos_as_xyz
  1  '-x, y+1/2, -z'
  2  '-x, -y, -z'
  3  '-x+1/2, -y, z+1/2'
  4  'x+1/2, -y+1/2, -z+1/2'
  5  'x, y, z'
  6  'x-1/2, y, -z-1/2'
  7  '-x-1/2, y-1/2, z-1/2'
  8  'x, -y-1/2, z'
loop_
_atom_site_type_symbol
_atom_site_label
_atom_site_symmetry_multiplicity
_atom_site_fract_x
_atom_site_fract_y
_atom_site_fract_z
_atom_site_occupancy
Ca Ca0 4 0.0788 0.7500 0.4828 1
U U1 4 0.0000 0.0000 0.0000 1
Se Se2 8 0.2039 0.0958 0.6941 1
Se Se3 4 0.0899 0.2500 0.1794 1

