data_Dy4In4S12
_symmetry_space_group_name_H-M Pnma
_cell_length_a 7.1344
_cell_length_b 9.9750
_cell_length_c 6.6098
_cell_angle_alpha 90.0000
_cell_angle_beta 90.0000
_cell_angle_gamma 90.0000
_symmetry_Int_Tables_number 62
_chemical_formula_structural DyInS3
_chemical_formula_sum 'Dy4 In4 S12'
_cell_volume 459.6820
_cell_formula_units_Z 4
loop_
 _symmetry_equiv_pos_site_id
 _symmetry_equiv_pos_as_xyz
  1  '-x, y+1/2, -z'
  2  '-x, -y, -z'
  3  '-x+1/2, -y, z+1/2'
  4  'x+1/2, -y+1/2, -z+1/2'
  5  'x, y, z'
  6  'x-1/2, y, -z-1/2'
  7  '-x-1/2, y-1/2, z-1/2'
  8  'x, -y-1/2, z'
loop_
_atom_site_type_symbol
_atom_site_label
_atom_site_symmetry_multiplicity
_atom_site_fract_x
_atom_site_fract_y
_atom_site_fract_z
_atom_site_occupancy
Dy Dy0 4 0.0000 0.0000 0.5000 1
In In1 4 0.0717 0.7500 0.9865 1
S S2 8 0.1808 0.0745 0.1686 1
S S3 4 0.0624 0.2500 0.6433 1

