data_Gd4Sc4S12
_symmetry_space_group_name_H-M Pna2_1
_cell_length_a 6.9914
_cell_length_b 6.3600
_cell_length_c 9.5392
_cell_angle_alpha 90.0000
_cell_angle_beta 90.0000
_cell_angle_gamma 90.0000
_symmetry_Int_Tables_number 33
_chemical_formula_structural GdScS3
_chemical_formula_sum 'Gd4 Sc4 S12'
_cell_volume 418.6822
_cell_formula_units_Z 4
loop_
 _symmetry_equiv_pos_site_id
 _symmetry_equiv_pos_as_xyz
  1  'x+1/2, -y+1/2, z'
  2  '-x, -y, z+1/2'
  3  '-x+1/2, y+1/2, z+1/2'
  4  'x, y, z'
loop_
_atom_site_type_symbol
_atom_site_label
_atom_site_symmetry_multiplicity
_atom_site_fract_x
_atom_site_fract_y
_atom_site_fract_z
_atom_site_occupancy
Gd Gd0 4 0.1010 0.0418 0.4929 1
Sc Sc1 4 0.0040 0.5039 0.7382 1
S S2 4 0.0479 0.3548 0.9896 1
S S3 4 0.1804 0.8218 0.1690 1
S S4 4 0.1819 0.8201 0.8157 1

