data_La4Tb4S12
_symmetry_space_group_name_H-M Pnma
_cell_length_a 7.4206
_cell_length_b 9.9220
_cell_length_c 6.8340
_cell_angle_alpha 90.0000
_cell_angle_beta 90.0000
_cell_angle_gamma 90.0000
_symmetry_Int_Tables_number 62
_chemical_formula_structural LaTbS3
_chemical_formula_sum 'La4 Tb4 S12'
_cell_volume 504.0415
_cell_formula_units_Z 4
loop_
 _symmetry_equiv_pos_site_id
 _symmetry_equiv_pos_as_xyz
  1  '-x, y+1/2, -z'
  2  '-x, -y, -z'
  3  '-x+1/2, -y, z+1/2'
  4  'x+1/2, -y+1/2, -z+1/2'
  5  'x, y, z'
  6  'x-1/2, y, -z-1/2'
  7  '-x-1/2, y-1/2, z-1/2'
  8  'x, -y-1/2, z'
loop_
_atom_site_type_symbol
_atom_site_label
_atom_site_symmetry_multiplicity
_atom_site_fract_x
_atom_site_fract_y
_atom_site_fract_z
_atom_site_occupancy
Tb Tb0 4 0.0000 0.0000 0.0000 1
La La1 4 0.0996 0.7500 0.5332 1
S S2 8 0.1880 0.0721 0.3173 1
S S3 4 0.0573 0.2500 0.8556 1

