data_Sm4Zr4S12
_symmetry_space_group_name_H-M Pnma
_cell_length_a 7.2209
_cell_length_b 9.4020
_cell_length_c 6.4640
_cell_angle_alpha 90.0000
_cell_angle_beta 90.0000
_cell_angle_gamma 90.0000
_symmetry_Int_Tables_number 62
_chemical_formula_structural SmZrS3
_chemical_formula_sum 'Sm4 Zr4 S12'
_cell_volume 439.0415
_cell_formula_units_Z 4
loop_
 _symmetry_equiv_pos_site_id
 _symmetry_equiv_pos_as_xyz
  1  '-x, y+1/2, -z'
  2  '-x, -y, -z'
  3  '-x+1/2, -y, z+1/2'
  4  'x+1/2, -y+1/2, -z+1/2'
  5  'x, y, z'
  6  'x-1/2, y, -z-1/2'
  7  '-x-1/2, y-1/2, z-1/2'
  8  'x, -y-1/2, z'
loop_
_atom_site_type_symbol
_atom_site_label
_atom_site_symmetry_multiplicity
_atom_site_fract_x
_atom_site_fract_y
_atom_site_fract_z
_atom_site_occupancy
Sm Sm0 4 0.1036 0.2500 0.9643 1
Zr Zr1 4 0.0000 0.0000 0.5000 1
S S2 8 0.1855 0.5671 0.1773 1
S S3 4 0.0473 0.7500 0.6356 1

