data_Sr4Ce4S12
_symmetry_space_group_name_H-M Pnma
_cell_length_a 7.8995
_cell_length_b 10.1528
_cell_length_c 7.4067
_cell_angle_alpha 90.0000
_cell_angle_beta 90.0000
_cell_angle_gamma 90.0000
_symmetry_Int_Tables_number 62
_chemical_formula_structural SrCeS3
_chemical_formula_sum 'Sr4 Ce4 S12'
_cell_volume 591.1482
_cell_formula_units_Z 4
loop_
 _symmetry_equiv_pos_site_id
 _symmetry_equiv_pos_as_xyz
  1  '-x, y+1/2, -z'
  2  '-x, -y, -z'
  3  '-x+1/2, -y, z+1/2'
  4  'x+1/2, -y+1/2, -z+1/2'
  5  'x, y, z'
  6  'x-1/2, y, -z-1/2'
  7  '-x-1/2, y-1/2, z-1/2'
  8  'x, -y-1/2, z'
loop_
_atom_site_type_symbol
_atom_site_label
_atom_site_symmetry_multiplicity
_atom_site_fract_x
_atom_site_fract_y
_atom_site_fract_z
_atom_site_occupancy
Sr Sr0 4 0.0807 0.2500 0.9837 1
Ce Ce1 4 0.0000 0.0000 0.5000 1
S S2 8 0.2010 0.5930 0.1975 1
S S3 4 0.0867 0.7500 0.6672 1

