data_Yb4Sm4S12
_symmetry_space_group_name_H-M Pnma
_cell_length_a 7.6268
_cell_length_b 8.9766
_cell_length_c 7.0697
_cell_angle_alpha 90.0000
_cell_angle_beta 90.0000
_cell_angle_gamma 90.0000
_symmetry_Int_Tables_number 62
_chemical_formula_structural YbSmS3
_chemical_formula_sum 'Yb4 Sm4 S12'
_cell_volume 478.4926
_cell_formula_units_Z 4
loop_
 _symmetry_equiv_pos_site_id
 _symmetry_equiv_pos_as_xyz
  1  '-x, y+1/2, -z'
  2  '-x, -y, -z'
  3  '-x+1/2, -y, z+1/2'
  4  'x+1/2, -y+1/2, -z+1/2'
  5  'x, y, z'
  6  'x-1/2, y, -z-1/2'
  7  '-x-1/2, y-1/2, z-1/2'
  8  'x, -y-1/2, z'
loop_
_atom_site_type_symbol
_atom_site_label
_atom_site_symmetry_multiplicity
_atom_site_fract_x
_atom_site_fract_y
_atom_site_fract_z
_atom_site_occupancy
Yb Yb0 4 0.0000 0.0000 0.5000 1
Sm Sm1 4 0.0943 0.7500 0.9781 1
S S2 8 0.1935 0.0852 0.1905 1
S S3 4 0.0962 0.2500 0.6796 1

